Program Version,EnergyPlus, Version 25.1.0-1c11a3d85f, YMD=2026.05.22 06:09
! <Version>, Version ID
 Version, 25.1
! <Timesteps per Hour>, #TimeSteps, Minutes per TimeStep {minutes}
 Timesteps per Hour,  4, 15
! <System Convergence Limits>, Minimum System TimeStep {minutes}, Max HVAC Iterations, Minimum Plant Iterations, Maximum Plant Iterations
 System Convergence Limits, 1, 20, 2, 8
! <Simulation Control>, Do Zone Sizing, Do System Sizing, Do Plant Sizing, Do Design Days, Do Weather Simulation, Do HVAC Sizing Simulation
 Simulation Control, Yes, Yes, Yes, Yes, Yes, Yes
! <Performance Precision Tradeoffs>, Use Coil Direct Simulation, Zone Radiant Exchange Algorithm, Override Mode, Number of Timestep In Hour, Force Euler Method, Minimum Number of Warmup Days, Force Suppress All Begin Environment Resets, Minimum System Timestep, MaxZoneTempDiff, MaxAllowedDelTemp
 Performance Precision Tradeoffs, No, ScriptF, Normal, 4, No, 1, No, 1.0, 0.300, 2.0000E-003
! <Output Reporting Tolerances>, Tolerance for Time Heating Setpoint Not Met, Tolerance for Zone Cooling Setpoint Not Met Time
 Output Reporting Tolerances, 0.500, 0.500, 
! <Site:GroundTemperature:BuildingSurface>,Jan{C},Feb{C},Mar{C},Apr{C},May{C},Jun{C},Jul{C},Aug{C},Sep{C},Oct{C},Nov{C},Dec{C}
 Site:GroundTemperature:BuildingSurface,  18.00,  18.00,  18.00,  18.00,  18.00,  18.00,  18.00,  18.00,  18.00,  18.00,  18.00,  18.00
! <Site:GroundTemperature:FCfactorMethod>,Jan{C},Feb{C},Mar{C},Apr{C},May{C},Jun{C},Jul{C},Aug{C},Sep{C},Oct{C},Nov{C},Dec{C}
 Site:GroundTemperature:FCfactorMethod,  -5.25,  -6.52,  -4.28,  -0.76,   8.43,  15.52,  20.30,  21.76,  19.28,  13.77,   6.41,  -0.41
! <Site:GroundTemperature:Shallow>,Jan{C},Feb{C},Mar{C},Apr{C},May{C},Jun{C},Jul{C},Aug{C},Sep{C},Oct{C},Nov{C},Dec{C}
 Site:GroundTemperature:Shallow,  13.00,  13.00,  13.00,  13.00,  13.00,  13.00,  13.00,  13.00,  13.00,  13.00,  13.00,  13.00
! <Site:GroundTemperature:Deep>,Jan{C},Feb{C},Mar{C},Apr{C},May{C},Jun{C},Jul{C},Aug{C},Sep{C},Oct{C},Nov{C},Dec{C}
 Site:GroundTemperature:Deep,  16.00,  16.00,  16.00,  16.00,  16.00,  16.00,  16.00,  16.00,  16.00,  16.00,  16.00,  16.00
! <Site:GroundReflectance>,Jan{dimensionless},Feb{dimensionless},Mar{dimensionless},Apr{dimensionless},May{dimensionless},Jun{dimensionless},Jul{dimensionless},Aug{dimensionless},Sep{dimensionless},Oct{dimensionless},Nov{dimensionless},Dec{dimensionless}
 Site:GroundReflectance,  0.20,  0.20,  0.20,  0.20,  0.20,  0.20,  0.20,  0.20,  0.20,  0.20,  0.20,  0.20
! <Site:GroundReflectance:SnowModifier>, Normal, Daylighting {dimensionless}
 Site:GroundReflectance:SnowModifier,   1.000,   1.000
! <Site:GroundReflectance:Snow>,Jan{dimensionless},Feb{dimensionless},Mar{dimensionless},Apr{dimensionless},May{dimensionless},Jun{dimensionless},Jul{dimensionless},Aug{dimensionless},Sep{dimensionless},Oct{dimensionless},Nov{dimensionless},Dec{dimensionless}
 Site:GroundReflectance:Snow,  0.20,  0.20,  0.20,  0.20,  0.20,  0.20,  0.20,  0.20,  0.20,  0.20,  0.20,  0.20
! <Site:GroundReflectance:Snow:Daylighting>,Jan{dimensionless},Feb{dimensionless},Mar{dimensionless},Apr{dimensionless},May{dimensionless},Jun{dimensionless},Jul{dimensionless},Aug{dimensionless},Sep{dimensionless},Oct{dimensionless},Nov{dimensionless},Dec{dimensionless}
 Site:GroundReflectance:Snow:Daylighting,  0.20,  0.20,  0.20,  0.20,  0.20,  0.20,  0.20,  0.20,  0.20,  0.20,  0.20,  0.20
! <Environment:Weather Station>,Wind Sensor Height Above Ground {m},Wind Speed Profile Exponent {},Wind Speed Profile Boundary Layer Thickness {m},Air Temperature Sensor Height Above Ground {m},Wind Speed Modifier Coefficient-Internal,Temperature Modifier Coefficient-Internal
Environment:Weather Station,10.000,0.140,270.000,1.500,1.586,9.750E-003
! <Site:Location>, Location Name, Latitude {N+/S- Deg}, Longitude {E+/W- Deg},  Time Zone Number {GMT+/-}, Elevation {m},  Standard Pressure at Elevation {Pa}, Standard RhoAir at Elevation
Site:Location,Montreal-Trudeau Intl AP QC CAN CWEC2016 WMO#=716270,45.47,-73.74,-5.00,36.00,100893,1.1992
! <Site Water Mains Temperature Information>,Calculation Method{},Water Mains Temperature Schedule Name{},Annual Average Outdoor Air Temperature{C},Maximum Difference In Monthly Average Outdoor Air Temperatures{deltaC},Fixed Default Water Mains Temperature{C}
Site Water Mains Temperature Information,FixedDefault,NA,NA,NA,10.0
! <Building Information>, Building Name,North Axis {deg},Terrain,  Loads Convergence Tolerance Value,Temperature Convergence Tolerance Value,  Solar Distribution,Maximum Number of Warmup Days,Minimum Number of Warmup Days
 Building Information,Building 1,0.000,Suburbs,4.00000E-002,0.40000,FullExterior,25,1
! <Inside Convection Algorithm>, Algorithm {Simple | TARP | CeilingDiffuser | AdaptiveConvectionAlgorithm}
Inside Convection Algorithm,TARP
! <Outside Convection Algorithm>, Algorithm {SimpleCombined | TARP | MoWitt | DOE-2 | AdaptiveConvectionAlgorithm}
Outside Convection Algorithm,DOE-2
! <Sky Radiance Distribution>, Value {Anisotropic}
Sky Radiance Distribution,Anisotropic
! <Zone Air Solution Algorithm>, Algorithm {ThirdOrderBackwardDifference | AnalyticalSolution | EulerMethod}, Space Heat Balance Sizing, Space Heat Balance Simulation
 Zone Air Solution Algorithm, ThirdOrderBackwardDifference, No, No
! <Zone Air Carbon Dioxide Balance Simulation>, Simulation {Yes/No}, Carbon Dioxide Concentration
 Zone Air Carbon Dioxide Balance Simulation, No,N/A
! <Zone Air Generic Contaminant Balance Simulation>, Simulation {Yes/No}, Generic Contaminant Concentration
 Zone Air Generic Contaminant Balance Simulation, No,N/A
! <Zone Air Mass Flow Balance Simulation>, Enforce Mass Balance, Adjust Zone Mixing and Return {AdjustMixingOnly | AdjustReturnOnly | AdjustMixingThenReturn | AdjustReturnThenMixing | None}, Adjust Zone Infiltration {AddInfiltration | AdjustInfiltration | None}, Infiltration Zones {MixingSourceZonesOnly | AllZones}
 Zone Air Mass Flow Balance Simulation, No,N/A,N/A,N/A
! <HVACSystemRootFindingAlgorithm>, Value {RegulaFalsi | Bisection | BisectionThenRegulaFalsi | RegulaFalsiThenBisection}
 HVACSystemRootFindingAlgorithm, RegulaFalsi
! <Environment:Site Atmospheric Variation>,Wind Speed Profile Exponent {},Wind Speed Profile Boundary Layer Thickness {m},Air Temperature Gradient Coefficient {K/m}
Environment:Site Atmospheric Variation,0.220,370.000,6.500000E-003
! <Shadowing/Sun Position Calculations Annual Simulations>, Shading Calculation Method, Shading Calculation Update Frequency Method, Shading Calculation Update Frequency {days}, Maximum Figures in Shadow Overlap Calculations {}, Polygon Clipping Algorithm, Pixel Counting Resolution, Sky Diffuse Modeling Algorithm, Output External Shading Calculation Results, Disable Self-Shading Within Shading Zone Groups, Disable Self-Shading From Shading Zone Groups to Other Zones
Shadowing/Sun Position Calculations Annual Simulations,PolygonClipping,Periodic,20,15000,SutherlandHodgman,512,SimpleSkyDiffuseModeling,No,No,No
! <Surface Geometry>,Starting Corner,Vertex Input Direction,Coordinate System,Daylight Reference Point Coordinate System,Rectangular (Simple) Surface Coordinate System
 Surface Geometry,UpperLeftCorner,Counterclockwise,RelativeCoordinateSystem,RelativeCoordinateSystem,RelativeToZoneOrigin
! <Surface Heat Transfer Algorithm>, Value {CTF - ConductionTransferFunction | EMPD - MoisturePenetrationDepthConductionTransferFunction | CondFD - ConductionFiniteDifference | HAMT - CombinedHeatAndMoistureFiniteElement} - Description,Inside Surface Max Temperature Limit{C}, Surface Convection Coefficient Lower Limit {W/m2-K}, Surface Convection Coefficient Upper Limit {W/m2-K}
Surface Heat Transfer Algorithm, CTF - ConductionTransferFunction,200,0.10,1000.0
! <Shading Summary>, Number of Fixed Detached Shades, Number of Building Detached Shades, Number of Attached Shades
 Shading Summary,0,0,0
! <Zone Summary>, Number of Zones, Number of Zone Surfaces, Number of SubSurfaces
 Zone Summary,25,355,140
! <Zone Information>,Zone Name,North Axis {deg},Origin X-Coordinate {m},Origin Y-Coordinate {m},Origin Z-Coordinate {m},Centroid X-Coordinate {m},Centroid Y-Coordinate {m},Centroid Z-Coordinate {m},Type,Zone Multiplier,Zone List Multiplier,Minimum X {m},Maximum X {m},Minimum Y {m},Maximum Y {m},Minimum Z {m},Maximum Z {m},Ceiling Height {m},Volume {m3},Zone Inside Convection Algorithm {Simple-Detailed-CeilingDiffuser-TrombeWall},Zone Outside Convection Algorithm {Simple-Detailed-Tarp-MoWitt-DOE-2-BLAST}, Floor Area {m2},Exterior Gross Wall Area {m2},Exterior Net Wall Area {m2},Exterior Window Area {m2}, Number of Surfaces, Number of SubSurfaces, Number of Shading SubSurfaces,  Part of Total Building Area
 Zone Information, THERMAL ZONE 1,0.0,-0.89,7.98,0.00,2.77,13.12,1.52,1,1,1,-2.00,7.00,7.98,18.00,0.00,3.05,3.05,257.83,TARP,DOE-2,84.59,58.16,40.71,17.45,7,5,0,Yes
 Zone Information, THERMAL ZONE 10,0.0,9.13,11.50,0.00,13.06,14.63,1.52,1,1,1,9.13,17.00,11.50,18.00,0.00,3.05,3.05,128.47,TARP,DOE-2,42.15,43.80,30.66,13.14,9,7,0,Yes
 Zone Information, THERMAL ZONE 11,0.0,17.00,11.50,3.05,13.07,8.25,4.57,1,1,1,9.13,17.00,5.00,11.50,3.05,6.10,3.05,155.90,TARP,DOE-2,51.15,43.80,30.66,13.14,6,4,0,Yes
 Zone Information, THERMAL ZONE 12,0.0,-0.89,7.98,6.10,2.77,13.12,7.62,1,1,1,-2.00,7.00,7.98,18.00,6.10,9.14,3.05,257.83,TARP,DOE-2,84.59,58.16,40.71,17.45,7,5,0,Yes
 Zone Information, THERMAL ZONE 13,0.0,-0.89,7.98,3.05,2.77,13.12,4.57,1,1,1,-2.00,7.00,7.98,18.00,3.05,6.10,3.05,257.83,TARP,DOE-2,84.59,58.16,40.71,17.45,7,5,0,Yes
 Zone Information, THERMAL ZONE 14,0.0,9.13,11.50,3.05,13.06,14.63,4.57,1,1,1,9.13,17.00,11.50,18.00,3.05,6.10,3.05,128.47,TARP,DOE-2,42.15,43.80,30.66,13.14,9,7,0,Yes
 Zone Information, THERMAL ZONE 15,0.0,7.00,5.00,6.10,3.36,2.54,7.62,1,1,1,-0.56,7.00,0.00,5.00,6.10,9.14,3.05,110.91,TARP,DOE-2,36.39,51.91,36.34,15.57,6,4,0,Yes
 Zone Information, THERMAL ZONE 16,0.0,9.13,5.00,6.10,5.58,10.03,7.62,1,1,1,-0.89,9.13,5.00,18.00,6.10,9.14,3.05,154.61,TARP,DOE-2,50.73,22.14,15.49,6.64,10,8,0,Yes
 Zone Information, THERMAL ZONE 17,0.0,9.13,11.50,6.10,13.06,14.63,7.62,1,1,1,9.13,17.00,11.50,18.00,6.10,9.14,3.05,128.47,TARP,DOE-2,42.15,43.80,30.66,13.14,9,7,0,Yes
 Zone Information, THERMAL ZONE 18,0.0,9.13,5.00,9.14,5.58,10.03,10.67,1,1,1,-0.89,9.13,5.00,18.00,9.14,12.19,3.05,154.61,TARP,DOE-2,50.73,22.14,15.49,6.64,10,8,0,Yes
 Zone Information, THERMAL ZONE 19,0.0,17.00,11.50,9.14,13.07,8.25,10.67,1,1,1,9.13,17.00,5.00,11.50,9.14,12.19,3.05,155.90,TARP,DOE-2,51.15,43.80,30.66,13.14,6,4,0,Yes
 Zone Information, THERMAL ZONE 2,0.0,7.00,5.00,0.00,3.36,2.54,1.52,1,1,1,-0.56,7.00,0.00,5.00,0.00,3.05,3.05,110.91,TARP,DOE-2,36.39,51.91,36.34,15.57,6,4,0,Yes
 Zone Information, THERMAL ZONE 20,0.0,-0.89,7.98,9.14,2.77,13.12,10.67,1,1,1,-2.00,7.00,7.98,18.00,9.14,12.19,3.05,257.83,TARP,DOE-2,84.59,58.16,40.71,17.45,7,5,0,Yes
 Zone Information, THERMAL ZONE 21,0.0,9.13,11.50,9.14,13.06,14.63,10.67,1,1,1,9.13,17.00,11.50,18.00,9.14,12.19,3.05,128.47,TARP,DOE-2,42.15,43.80,30.66,13.14,9,7,0,Yes
 Zone Information, THERMAL ZONE 22,0.0,7.00,5.00,12.19,3.36,2.54,13.72,1,1,1,-0.56,7.00,0.00,5.00,12.19,15.24,3.05,110.91,TARP,DOE-2,36.39,51.91,36.34,15.57,6,4,0,Yes
 Zone Information, THERMAL ZONE 23,0.0,9.13,5.00,12.19,5.58,10.03,13.72,1,1,1,-0.89,9.13,5.00,18.00,12.19,15.24,3.05,154.61,TARP,DOE-2,50.73,22.14,15.49,6.64,10,8,0,Yes
 Zone Information, THERMAL ZONE 24,0.0,-0.89,7.98,12.19,2.77,13.12,13.72,1,1,1,-2.00,7.00,7.98,18.00,12.19,15.24,3.05,257.83,TARP,DOE-2,84.59,58.16,40.71,17.45,7,5,0,Yes
 Zone Information, THERMAL ZONE 25,0.0,9.13,11.50,12.19,13.06,14.63,13.72,1,1,1,9.13,17.00,11.50,18.00,12.19,15.24,3.05,128.47,TARP,DOE-2,42.15,43.80,30.66,13.14,9,7,0,Yes
 Zone Information, THERMAL ZONE 3,0.0,17.00,11.50,12.19,13.07,8.25,13.72,1,1,1,9.13,17.00,5.00,11.50,12.19,15.24,3.05,155.90,TARP,DOE-2,51.15,43.80,30.66,13.14,6,4,0,Yes
 Zone Information, THERMAL ZONE 4,0.0,7.00,5.00,3.05,3.36,2.54,4.57,1,1,1,-0.56,7.00,0.00,5.00,3.05,6.10,3.05,110.91,TARP,DOE-2,36.39,51.91,36.34,15.57,6,4,0,Yes
 Zone Information, THERMAL ZONE 5,0.0,7.00,5.00,9.14,3.36,2.54,10.67,1,1,1,-0.56,7.00,0.00,5.00,9.14,12.19,3.05,110.91,TARP,DOE-2,36.39,51.91,36.34,15.57,6,4,0,Yes
 Zone Information, THERMAL ZONE 6,0.0,9.13,5.00,0.00,5.58,10.03,1.52,1,1,1,-0.89,9.13,5.00,18.00,0.00,3.05,3.05,154.61,TARP,DOE-2,50.73,22.14,15.49,6.64,10,8,0,Yes
 Zone Information, THERMAL ZONE 7,0.0,17.00,11.50,6.10,13.07,8.25,7.62,1,1,1,9.13,17.00,5.00,11.50,6.10,9.14,3.05,155.90,TARP,DOE-2,51.15,43.80,30.66,13.14,6,4,0,Yes
 Zone Information, THERMAL ZONE 8,0.0,17.00,11.50,0.00,13.07,8.25,1.52,1,1,1,9.13,17.00,5.00,11.50,0.00,3.05,3.05,155.90,TARP,DOE-2,51.15,43.80,30.66,13.14,6,4,0,Yes
 Zone Information, THERMAL ZONE 9,0.0,9.13,5.00,3.05,5.58,10.03,4.57,1,1,1,-0.89,9.13,5.00,18.00,3.05,6.10,3.05,154.61,TARP,DOE-2,50.73,22.14,15.49,6.64,10,8,0,Yes
! <Zone Internal Gains Nominal>,Zone Name, Floor Area {m2},# Occupants,Area per Occupant {m2/person},Occupant per Area {person/m2},Interior Lighting {W/m2},Electric Load {W/m2},Gas Load {W/m2},Other Load {W/m2},Hot Water Eq {W/m2},Steam Equipment {W/m2},Sum Loads per Area {W/m2},Outdoor Controlled Baseboard Heat
 Zone Internal Gains Nominal, THERMAL ZONE 1,84.59,2.4,35.324,2.831E-002,2.853,27.671,0.000,0.000,0.000,0.000,30.525,No
 Zone Internal Gains Nominal, THERMAL ZONE 10,42.15,1.2,35.324,2.831E-002,5.726,55.535,0.000,0.000,0.000,0.000,61.261,No
 Zone Internal Gains Nominal, THERMAL ZONE 11,51.15,1.4,35.324,2.831E-002,4.719,45.763,0.000,0.000,0.000,0.000,50.482,No
 Zone Internal Gains Nominal, THERMAL ZONE 12,84.59,2.4,35.324,2.831E-002,2.853,27.671,0.000,0.000,0.000,0.000,30.525,No
 Zone Internal Gains Nominal, THERMAL ZONE 13,84.59,2.4,35.324,2.831E-002,2.853,27.671,0.000,0.000,0.000,0.000,30.525,No
 Zone Internal Gains Nominal, THERMAL ZONE 14,42.15,1.2,35.324,2.831E-002,5.726,55.535,0.000,0.000,0.000,0.000,61.261,No
 Zone Internal Gains Nominal, THERMAL ZONE 15,36.39,1.0,35.324,2.831E-002,6.633,64.324,0.000,0.000,0.000,0.000,70.957,No
 Zone Internal Gains Nominal, THERMAL ZONE 16,50.73,0.0,N/A,0.000,0.000,0.000,0.000,0.000,0.000,0.000,0.000,No
 Zone Internal Gains Nominal, THERMAL ZONE 17,42.15,1.2,35.324,2.831E-002,5.726,55.535,0.000,0.000,0.000,0.000,61.261,No
 Zone Internal Gains Nominal, THERMAL ZONE 18,50.73,0.0,N/A,0.000,0.000,0.000,0.000,0.000,0.000,0.000,0.000,No
 Zone Internal Gains Nominal, THERMAL ZONE 19,51.15,1.4,35.324,2.831E-002,4.719,45.763,0.000,0.000,0.000,0.000,50.482,No
 Zone Internal Gains Nominal, THERMAL ZONE 2,36.39,1.0,35.324,2.831E-002,6.633,64.324,0.000,0.000,0.000,0.000,70.957,No
 Zone Internal Gains Nominal, THERMAL ZONE 20,84.59,2.4,35.324,2.831E-002,2.853,27.671,0.000,0.000,0.000,0.000,30.525,No
 Zone Internal Gains Nominal, THERMAL ZONE 21,42.15,1.2,35.324,2.831E-002,5.726,55.535,0.000,0.000,0.000,0.000,61.261,No
 Zone Internal Gains Nominal, THERMAL ZONE 22,36.39,1.0,35.324,2.831E-002,6.633,64.324,0.000,0.000,0.000,0.000,70.957,No
 Zone Internal Gains Nominal, THERMAL ZONE 23,50.73,0.0,N/A,0.000,0.000,0.000,0.000,0.000,0.000,0.000,0.000,No
 Zone Internal Gains Nominal, THERMAL ZONE 24,84.59,2.4,35.324,2.831E-002,2.853,27.671,0.000,0.000,0.000,0.000,30.525,No
 Zone Internal Gains Nominal, THERMAL ZONE 25,42.15,1.2,35.324,2.831E-002,5.726,55.535,0.000,0.000,0.000,0.000,61.261,No
 Zone Internal Gains Nominal, THERMAL ZONE 3,51.15,1.4,35.324,2.831E-002,4.719,45.763,0.000,0.000,0.000,0.000,50.482,No
 Zone Internal Gains Nominal, THERMAL ZONE 4,36.39,1.0,35.324,2.831E-002,6.633,64.324,0.000,0.000,0.000,0.000,70.957,No
 Zone Internal Gains Nominal, THERMAL ZONE 5,36.39,1.0,35.324,2.831E-002,6.633,64.324,0.000,0.000,0.000,0.000,70.957,No
 Zone Internal Gains Nominal, THERMAL ZONE 6,50.73,0.0,N/A,0.000,0.000,0.000,0.000,0.000,0.000,0.000,0.000,No
 Zone Internal Gains Nominal, THERMAL ZONE 7,51.15,1.4,35.324,2.831E-002,4.719,45.763,0.000,0.000,0.000,0.000,50.482,No
 Zone Internal Gains Nominal, THERMAL ZONE 8,51.15,1.4,35.324,2.831E-002,4.719,45.763,0.000,0.000,0.000,0.000,50.482,No
 Zone Internal Gains Nominal, THERMAL ZONE 9,50.73,0.0,N/A,0.000,0.000,0.000,0.000,0.000,0.000,0.000,0.000,No
! <People Internal Gains Nominal>,Name,Schedule Name,Zone Name,Zone Floor Area {m2},# Zone Occupants,Number of People {},People/Floor Area {person/m2},Floor Area per person {m2/person},Fraction Radiant,Fraction Convected,Sensible Fraction Calculation,Activity level,ASHRAE 55 Warnings,Carbon Dioxide Generation Rate,Minimum Number of People for All Day Types,Maximum Number of People for All Day Types,Minimum Number of People for Weekdays, Maximum Number of People for Weekdays, Minimum Number of People for Weekends/Holidays, Maximum Number of People for Weekends /Holidays,Minimum Number of People for Summer Design Days, Maximum Number of People for Summer Design Days,Minimum Number of People for Winter Design Days, Maximum Number of People for Winter Design Days
 People Internal Gains Nominal, SPACE 104 PEOPLE 1,MIDRISEAPARTMENT APARTMENT OCC 3,THERMAL ZONE 1,84.59,2.4,2.4,2.831E-002,35.324,0.300,0.700,AutoCalculate,MIDRISEAPARTMENT ACTIVITY 3,No,3.8200E-008,0.6,2.4,0.6,2.4,0.6,2.4,0.6,2.4,0.6,2.4,
 People Internal Gains Nominal, SPACE 304 PEOPLE 1,MIDRISEAPARTMENT APARTMENT OCC 3,THERMAL ZONE 12,84.59,2.4,2.4,2.831E-002,35.324,0.300,0.700,AutoCalculate,MIDRISEAPARTMENT ACTIVITY 3,No,3.8200E-008,0.6,2.4,0.6,2.4,0.6,2.4,0.6,2.4,0.6,2.4,
 People Internal Gains Nominal, SPACE 204 PEOPLE 1,MIDRISEAPARTMENT APARTMENT OCC 3,THERMAL ZONE 13,84.59,2.4,2.4,2.831E-002,35.324,0.300,0.700,AutoCalculate,MIDRISEAPARTMENT ACTIVITY 3,No,3.8200E-008,0.6,2.4,0.6,2.4,0.6,2.4,0.6,2.4,0.6,2.4,
 People Internal Gains Nominal, SPACE 404 PEOPLE 1,MIDRISEAPARTMENT APARTMENT OCC 3,THERMAL ZONE 20,84.59,2.4,2.4,2.831E-002,35.324,0.300,0.700,AutoCalculate,MIDRISEAPARTMENT ACTIVITY 3,No,3.8200E-008,0.6,2.4,0.6,2.4,0.6,2.4,0.6,2.4,0.6,2.4,
 People Internal Gains Nominal, SPACE 504 PEOPLE 1,MIDRISEAPARTMENT APARTMENT OCC 3,THERMAL ZONE 24,84.59,2.4,2.4,2.831E-002,35.324,0.300,0.700,AutoCalculate,MIDRISEAPARTMENT ACTIVITY 3,No,3.8200E-008,0.6,2.4,0.6,2.4,0.6,2.4,0.6,2.4,0.6,2.4,
 People Internal Gains Nominal, SPACE 101 PEOPLE 2,MIDRISEAPARTMENT APARTMENT OCC 3,THERMAL ZONE 2,36.39,1.0,1.0,2.831E-002,35.324,0.300,0.700,AutoCalculate,MIDRISEAPARTMENT ACTIVITY 3,No,3.8200E-008,0.3,1.0,0.3,1.0,0.3,1.0,0.3,1.0,0.3,1.0,
 People Internal Gains Nominal, SPACE 503 PEOPLE 2,MIDRISEAPARTMENT APARTMENT OCC 3,THERMAL ZONE 3,51.15,1.4,1.4,2.831E-002,35.324,0.300,0.700,AutoCalculate,MIDRISEAPARTMENT ACTIVITY 3,No,3.8200E-008,0.4,1.4,0.4,1.4,0.4,1.4,0.4,1.4,0.4,1.4,
 People Internal Gains Nominal, SPACE 201 PEOPLE 2,MIDRISEAPARTMENT APARTMENT OCC 3,THERMAL ZONE 4,36.39,1.0,1.0,2.831E-002,35.324,0.300,0.700,AutoCalculate,MIDRISEAPARTMENT ACTIVITY 3,No,3.8200E-008,0.3,1.0,0.3,1.0,0.3,1.0,0.3,1.0,0.3,1.0,
 People Internal Gains Nominal, SPACE 401 PEOPLE 2,MIDRISEAPARTMENT APARTMENT OCC 3,THERMAL ZONE 5,36.39,1.0,1.0,2.831E-002,35.324,0.300,0.700,AutoCalculate,MIDRISEAPARTMENT ACTIVITY 3,No,3.8200E-008,0.3,1.0,0.3,1.0,0.3,1.0,0.3,1.0,0.3,1.0,
 People Internal Gains Nominal, SPACE 303 PEOPLE 2,MIDRISEAPARTMENT APARTMENT OCC 3,THERMAL ZONE 7,51.15,1.4,1.4,2.831E-002,35.324,0.300,0.700,AutoCalculate,MIDRISEAPARTMENT ACTIVITY 3,No,3.8200E-008,0.4,1.4,0.4,1.4,0.4,1.4,0.4,1.4,0.4,1.4,
 People Internal Gains Nominal, SPACE 103 PEOPLE 2,MIDRISEAPARTMENT APARTMENT OCC 3,THERMAL ZONE 8,51.15,1.4,1.4,2.831E-002,35.324,0.300,0.700,AutoCalculate,MIDRISEAPARTMENT ACTIVITY 3,No,3.8200E-008,0.4,1.4,0.4,1.4,0.4,1.4,0.4,1.4,0.4,1.4,
 People Internal Gains Nominal, SPACE 105 PEOPLE 2,MIDRISEAPARTMENT APARTMENT OCC 3,THERMAL ZONE 10,42.15,1.2,1.2,2.831E-002,35.324,0.300,0.700,AutoCalculate,MIDRISEAPARTMENT ACTIVITY 3,No,3.8200E-008,0.3,1.2,0.3,1.2,0.3,1.2,0.3,1.2,0.3,1.2,
 People Internal Gains Nominal, SPACE 203 PEOPLE 2,MIDRISEAPARTMENT APARTMENT OCC 3,THERMAL ZONE 11,51.15,1.4,1.4,2.831E-002,35.324,0.300,0.700,AutoCalculate,MIDRISEAPARTMENT ACTIVITY 3,No,3.8200E-008,0.4,1.4,0.4,1.4,0.4,1.4,0.4,1.4,0.4,1.4,
 People Internal Gains Nominal, SPACE 205 PEOPLE 2,MIDRISEAPARTMENT APARTMENT OCC 3,THERMAL ZONE 14,42.15,1.2,1.2,2.831E-002,35.324,0.300,0.700,AutoCalculate,MIDRISEAPARTMENT ACTIVITY 3,No,3.8200E-008,0.3,1.2,0.3,1.2,0.3,1.2,0.3,1.2,0.3,1.2,
 People Internal Gains Nominal, SPACE 301 PEOPLE 2,MIDRISEAPARTMENT APARTMENT OCC 3,THERMAL ZONE 15,36.39,1.0,1.0,2.831E-002,35.324,0.300,0.700,AutoCalculate,MIDRISEAPARTMENT ACTIVITY 3,No,3.8200E-008,0.3,1.0,0.3,1.0,0.3,1.0,0.3,1.0,0.3,1.0,
 People Internal Gains Nominal, SPACE 305 PEOPLE 2,MIDRISEAPARTMENT APARTMENT OCC 3,THERMAL ZONE 17,42.15,1.2,1.2,2.831E-002,35.324,0.300,0.700,AutoCalculate,MIDRISEAPARTMENT ACTIVITY 3,No,3.8200E-008,0.3,1.2,0.3,1.2,0.3,1.2,0.3,1.2,0.3,1.2,
 People Internal Gains Nominal, SPACE 403 PEOPLE 2,MIDRISEAPARTMENT APARTMENT OCC 3,THERMAL ZONE 19,51.15,1.4,1.4,2.831E-002,35.324,0.300,0.700,AutoCalculate,MIDRISEAPARTMENT ACTIVITY 3,No,3.8200E-008,0.4,1.4,0.4,1.4,0.4,1.4,0.4,1.4,0.4,1.4,
 People Internal Gains Nominal, SPACE 405 PEOPLE 2,MIDRISEAPARTMENT APARTMENT OCC 3,THERMAL ZONE 21,42.15,1.2,1.2,2.831E-002,35.324,0.300,0.700,AutoCalculate,MIDRISEAPARTMENT ACTIVITY 3,No,3.8200E-008,0.3,1.2,0.3,1.2,0.3,1.2,0.3,1.2,0.3,1.2,
 People Internal Gains Nominal, SPACE 501 PEOPLE 2,MIDRISEAPARTMENT APARTMENT OCC 3,THERMAL ZONE 22,36.39,1.0,1.0,2.831E-002,35.324,0.300,0.700,AutoCalculate,MIDRISEAPARTMENT ACTIVITY 3,No,3.8200E-008,0.3,1.0,0.3,1.0,0.3,1.0,0.3,1.0,0.3,1.0,
 People Internal Gains Nominal, SPACE 505 PEOPLE 2,MIDRISEAPARTMENT APARTMENT OCC 3,THERMAL ZONE 25,42.15,1.2,1.2,2.831E-002,35.324,0.300,0.700,AutoCalculate,MIDRISEAPARTMENT ACTIVITY 3,No,3.8200E-008,0.3,1.2,0.3,1.2,0.3,1.2,0.3,1.2,0.3,1.2,
! <Lights Internal Gains Nominal>,Name,Schedule Name,Zone Name,Zone Floor Area {m2},# Zone Occupants,Lighting Level {W},Lights/Floor Area {W/m2},Lights per person {W/person},Fraction Return Air,Fraction Radiant,Fraction Short Wave,Fraction Convected,Fraction Replaceable,End-Use, Minimum Lighting Level for All Day Types {W},Maximum Lighting Level for All Day Types {W},Minimum Lighting Level for Weekdays {W}, Maximum Lighting Level for Weekdays {W},Minimum Lighting Level for Weekends/Holidays {W}, Maximum Lighting Level for Weekends /Holidays {W},Minimum Lighting Level for Summer Design Days {W}, Maximum Lighting Level for Summer Design Days {W},Minimum Lighting Level for Winter Design Days {W}, Maximum Lighting Level for Winter Design Days {W}
 Lights Internal Gains Nominal, SPACE 104 LIGHTS 1,ECLAIRAGEINT,THERMAL ZONE 1,84.59,2.4,241.350,2.853,100.788,0.000,0.400,0.200,0.400,1.000,General,0.000,181.013,0.000,181.0,0.000,181.013,0.000,181.013,0.000,181.013
 Lights Internal Gains Nominal, SPACE 304 LIGHTS 1,ECLAIRAGEINT,THERMAL ZONE 12,84.59,2.4,241.350,2.853,100.788,0.000,0.400,0.200,0.400,1.000,General,0.000,181.013,0.000,181.0,0.000,181.013,0.000,181.013,0.000,181.013
 Lights Internal Gains Nominal, SPACE 204 LIGHTS 1,ECLAIRAGEINT,THERMAL ZONE 13,84.59,2.4,241.350,2.853,100.788,0.000,0.400,0.200,0.400,1.000,General,0.000,181.013,0.000,181.0,0.000,181.013,0.000,181.013,0.000,181.013
 Lights Internal Gains Nominal, SPACE 404 LIGHTS 1,ECLAIRAGEINT,THERMAL ZONE 20,84.59,2.4,241.350,2.853,100.788,0.000,0.400,0.200,0.400,1.000,General,0.000,181.013,0.000,181.0,0.000,181.013,0.000,181.013,0.000,181.013
 Lights Internal Gains Nominal, SPACE 504 LIGHTS 1,ECLAIRAGEINT,THERMAL ZONE 24,84.59,2.4,241.350,2.853,100.788,0.000,0.400,0.200,0.400,1.000,General,0.000,181.013,0.000,181.0,0.000,181.013,0.000,181.013,0.000,181.013
 Lights Internal Gains Nominal, SPACE 101 LIGHTS 2,ECLAIRAGEINT,THERMAL ZONE 2,36.39,1.0,241.350,6.633,234.289,0.000,0.400,0.200,0.400,1.000,General,0.000,181.013,0.000,181.0,0.000,181.013,0.000,181.013,0.000,181.013
 Lights Internal Gains Nominal, SPACE 503 LIGHTS 2,ECLAIRAGEINT,THERMAL ZONE 3,51.15,1.4,241.350,4.719,166.683,0.000,0.400,0.200,0.400,1.000,General,0.000,181.013,0.000,181.0,0.000,181.013,0.000,181.013,0.000,181.013
 Lights Internal Gains Nominal, SPACE 201 LIGHTS 2,ECLAIRAGEINT,THERMAL ZONE 4,36.39,1.0,241.350,6.633,234.289,0.000,0.400,0.200,0.400,1.000,General,0.000,181.013,0.000,181.0,0.000,181.013,0.000,181.013,0.000,181.013
 Lights Internal Gains Nominal, SPACE 401 LIGHTS 2,ECLAIRAGEINT,THERMAL ZONE 5,36.39,1.0,241.350,6.633,234.289,0.000,0.400,0.200,0.400,1.000,General,0.000,181.013,0.000,181.0,0.000,181.013,0.000,181.013,0.000,181.013
 Lights Internal Gains Nominal, SPACE 303 LIGHTS 2,ECLAIRAGEINT,THERMAL ZONE 7,51.15,1.4,241.350,4.719,166.683,0.000,0.400,0.200,0.400,1.000,General,0.000,181.013,0.000,181.0,0.000,181.013,0.000,181.013,0.000,181.013
 Lights Internal Gains Nominal, SPACE 103 LIGHTS 2,ECLAIRAGEINT,THERMAL ZONE 8,51.15,1.4,241.350,4.719,166.683,0.000,0.400,0.200,0.400,1.000,General,0.000,181.013,0.000,181.0,0.000,181.013,0.000,181.013,0.000,181.013
 Lights Internal Gains Nominal, SPACE 105 LIGHTS 2,ECLAIRAGEINT,THERMAL ZONE 10,42.15,1.2,241.350,5.726,202.276,0.000,0.400,0.200,0.400,1.000,General,0.000,181.013,0.000,181.0,0.000,181.013,0.000,181.013,0.000,181.013
 Lights Internal Gains Nominal, SPACE 203 LIGHTS 2,ECLAIRAGEINT,THERMAL ZONE 11,51.15,1.4,241.350,4.719,166.683,0.000,0.400,0.200,0.400,1.000,General,0.000,181.013,0.000,181.0,0.000,181.013,0.000,181.013,0.000,181.013
 Lights Internal Gains Nominal, SPACE 205 LIGHTS 2,ECLAIRAGEINT,THERMAL ZONE 14,42.15,1.2,241.350,5.726,202.276,0.000,0.400,0.200,0.400,1.000,General,0.000,181.013,0.000,181.0,0.000,181.013,0.000,181.013,0.000,181.013
 Lights Internal Gains Nominal, SPACE 301 LIGHTS 2,ECLAIRAGEINT,THERMAL ZONE 15,36.39,1.0,241.350,6.633,234.289,0.000,0.400,0.200,0.400,1.000,General,0.000,181.013,0.000,181.0,0.000,181.013,0.000,181.013,0.000,181.013
 Lights Internal Gains Nominal, SPACE 305 LIGHTS 2,ECLAIRAGEINT,THERMAL ZONE 17,42.15,1.2,241.350,5.726,202.276,0.000,0.400,0.200,0.400,1.000,General,0.000,181.013,0.000,181.0,0.000,181.013,0.000,181.013,0.000,181.013
 Lights Internal Gains Nominal, SPACE 403 LIGHTS 2,ECLAIRAGEINT,THERMAL ZONE 19,51.15,1.4,241.350,4.719,166.683,0.000,0.400,0.200,0.400,1.000,General,0.000,181.013,0.000,181.0,0.000,181.013,0.000,181.013,0.000,181.013
 Lights Internal Gains Nominal, SPACE 405 LIGHTS 2,ECLAIRAGEINT,THERMAL ZONE 21,42.15,1.2,241.350,5.726,202.276,0.000,0.400,0.200,0.400,1.000,General,0.000,181.013,0.000,181.0,0.000,181.013,0.000,181.013,0.000,181.013
 Lights Internal Gains Nominal, SPACE 501 LIGHTS 2,ECLAIRAGEINT,THERMAL ZONE 22,36.39,1.0,241.350,6.633,234.289,0.000,0.400,0.200,0.400,1.000,General,0.000,181.013,0.000,181.0,0.000,181.013,0.000,181.013,0.000,181.013
 Lights Internal Gains Nominal, SPACE 505 LIGHTS 2,ECLAIRAGEINT,THERMAL ZONE 25,42.15,1.2,241.350,5.726,202.276,0.000,0.400,0.200,0.400,1.000,General,0.000,181.013,0.000,181.0,0.000,181.013,0.000,181.013,0.000,181.013
! <ElectricEquipment Internal Gains Nominal>,Name,Schedule Name,Zone Name,Zone Floor Area {m2},# Zone Occupants,Equipment Level {W},Equipment/Floor Area {W/m2},Equipment per person {W/person},Fraction Latent,Fraction Radiant,Fraction Lost,Fraction Convected,End-Use SubCategory,Minimum Equipment Level for All Day Types {W},Maximum Equipment Level for All Day Types {W},Minimum Equipment Level for Weekdays {W}, Maximum Equipment Level for Weekdays {W},Minimum Equipment Level for Weekends/Holidays {W}, Maximum Equipment Level for Weekends /Holidays {W},Minimum Equipment Level for Summer Design Days {W}, Maximum Equipment Level for Summer Design Days {W},Minimum Equipment Level for Winter Design Days {W}, Maximum Equipment Level for Winter Design Days {W}
 ElectricEquipment Internal Gains Nominal, SPACE 104 ELECTRIC EQUIPMENT 1 5.0 PERCENT REDUCTION,AUTRES,THERMAL ZONE 1,84.59,2.4,703.000,8.311,293.572,0.000,0.200,0.000,0.800,General,47.505,527.250,47.505,527.250,47.505,527.250,47.505,527.250,47.505,527.250
 ElectricEquipment Internal Gains Nominal, SPACE 304 ELECTRIC EQUIPMENT 1 5.0 PERCENT REDUCTION,AUTRES,THERMAL ZONE 12,84.59,2.4,703.000,8.311,293.572,0.000,0.200,0.000,0.800,General,47.505,527.250,47.505,527.250,47.505,527.250,47.505,527.250,47.505,527.250
 ElectricEquipment Internal Gains Nominal, SPACE 204 ELECTRIC EQUIPMENT 1 5.0 PERCENT REDUCTION,AUTRES,THERMAL ZONE 13,84.59,2.4,703.000,8.311,293.572,0.000,0.200,0.000,0.800,General,47.505,527.250,47.505,527.250,47.505,527.250,47.505,527.250,47.505,527.250
 ElectricEquipment Internal Gains Nominal, SPACE 404 ELECTRIC EQUIPMENT 1 5.0 PERCENT REDUCTION,AUTRES,THERMAL ZONE 20,84.59,2.4,703.000,8.311,293.572,0.000,0.200,0.000,0.800,General,47.505,527.250,47.505,527.250,47.505,527.250,47.505,527.250,47.505,527.250
 ElectricEquipment Internal Gains Nominal, SPACE 504 ELECTRIC EQUIPMENT 1 5.0 PERCENT REDUCTION,AUTRES,THERMAL ZONE 24,84.59,2.4,703.000,8.311,293.572,0.000,0.200,0.000,0.800,General,47.505,527.250,47.505,527.250,47.505,527.250,47.505,527.250,47.505,527.250
 ElectricEquipment Internal Gains Nominal, SPACE 104 ELECTRIC EQUIPMENT 11 5.0 PERCENT REDUCTION,LAVEUSE,THERMAL ZONE 1,84.59,2.4,26.429,0.312,11.037,0.000,0.200,0.100,0.700,General,8.490E-002,19.822,8.490E-002,19.822,8.490E-002,19.822,8.490E-002,19.822,8.490E-002,19.822
 ElectricEquipment Internal Gains Nominal, SPACE 304 ELECTRIC EQUIPMENT 11 5.0 PERCENT REDUCTION,LAVEUSE,THERMAL ZONE 12,84.59,2.4,26.429,0.312,11.037,0.000,0.200,0.100,0.700,General,8.490E-002,19.822,8.490E-002,19.822,8.490E-002,19.822,8.490E-002,19.822,8.490E-002,19.822
 ElectricEquipment Internal Gains Nominal, SPACE 204 ELECTRIC EQUIPMENT 11 5.0 PERCENT REDUCTION,LAVEUSE,THERMAL ZONE 13,84.59,2.4,26.429,0.312,11.037,0.000,0.200,0.100,0.700,General,8.490E-002,19.822,8.490E-002,19.822,8.490E-002,19.822,8.490E-002,19.822,8.490E-002,19.822
 ElectricEquipment Internal Gains Nominal, SPACE 404 ELECTRIC EQUIPMENT 11 5.0 PERCENT REDUCTION,LAVEUSE,THERMAL ZONE 20,84.59,2.4,26.429,0.312,11.037,0.000,0.200,0.100,0.700,General,8.490E-002,19.822,8.490E-002,19.822,8.490E-002,19.822,8.490E-002,19.822,8.490E-002,19.822
 ElectricEquipment Internal Gains Nominal, SPACE 504 ELECTRIC EQUIPMENT 11 5.0 PERCENT REDUCTION,LAVEUSE,THERMAL ZONE 24,84.59,2.4,26.429,0.312,11.037,0.000,0.200,0.100,0.700,General,8.490E-002,19.822,8.490E-002,19.822,8.490E-002,19.822,8.490E-002,19.822,8.490E-002,19.822
 ElectricEquipment Internal Gains Nominal, SPACE 104 ELECTRIC EQUIPMENT 13 5.0 PERCENT REDUCTION,LAVEVAISSELLE,THERMAL ZONE 1,84.59,2.4,29.061,0.344,12.136,0.100,0.100,0.800,0.000,General,1.479E-002,21.795,1.479E-002,21.795,1.479E-002,21.795,1.479E-002,21.795,1.479E-002,21.795
 ElectricEquipment Internal Gains Nominal, SPACE 304 ELECTRIC EQUIPMENT 13 5.0 PERCENT REDUCTION,LAVEVAISSELLE,THERMAL ZONE 12,84.59,2.4,29.061,0.344,12.136,0.100,0.100,0.800,0.000,General,1.479E-002,21.795,1.479E-002,21.795,1.479E-002,21.795,1.479E-002,21.795,1.479E-002,21.795
 ElectricEquipment Internal Gains Nominal, SPACE 204 ELECTRIC EQUIPMENT 13 5.0 PERCENT REDUCTION,LAVEVAISSELLE,THERMAL ZONE 13,84.59,2.4,29.061,0.344,12.136,0.100,0.100,0.800,0.000,General,1.479E-002,21.795,1.479E-002,21.795,1.479E-002,21.795,1.479E-002,21.795,1.479E-002,21.795
 ElectricEquipment Internal Gains Nominal, SPACE 404 ELECTRIC EQUIPMENT 13 5.0 PERCENT REDUCTION,LAVEVAISSELLE,THERMAL ZONE 20,84.59,2.4,29.061,0.344,12.136,0.100,0.100,0.800,0.000,General,1.479E-002,21.795,1.479E-002,21.795,1.479E-002,21.795,1.479E-002,21.795,1.479E-002,21.795
 ElectricEquipment Internal Gains Nominal, SPACE 504 ELECTRIC EQUIPMENT 13 5.0 PERCENT REDUCTION,LAVEVAISSELLE,THERMAL ZONE 24,84.59,2.4,29.061,0.344,12.136,0.100,0.100,0.800,0.000,General,1.479E-002,21.795,1.479E-002,21.795,1.479E-002,21.795,1.479E-002,21.795,1.479E-002,21.795
 ElectricEquipment Internal Gains Nominal, SPACE 104 ELECTRIC EQUIPMENT 15 5.0 PERCENT REDUCTION,REFRIGERATEUR,THERMAL ZONE 1,84.59,2.4,110.941,1.312,46.329,0.100,0.000,0.900,0.000,General,31.941,83.206,31.941,83.206,31.941,83.206,31.941,83.206,31.941,83.206
 ElectricEquipment Internal Gains Nominal, SPACE 304 ELECTRIC EQUIPMENT 15 5.0 PERCENT REDUCTION,REFRIGERATEUR,THERMAL ZONE 12,84.59,2.4,110.941,1.312,46.329,0.100,0.000,0.900,0.000,General,31.941,83.206,31.941,83.206,31.941,83.206,31.941,83.206,31.941,83.206
 ElectricEquipment Internal Gains Nominal, SPACE 204 ELECTRIC EQUIPMENT 15 5.0 PERCENT REDUCTION,REFRIGERATEUR,THERMAL ZONE 13,84.59,2.4,110.941,1.312,46.329,0.100,0.000,0.900,0.000,General,31.941,83.206,31.941,83.206,31.941,83.206,31.941,83.206,31.941,83.206
 ElectricEquipment Internal Gains Nominal, SPACE 404 ELECTRIC EQUIPMENT 15 5.0 PERCENT REDUCTION,REFRIGERATEUR,THERMAL ZONE 20,84.59,2.4,110.941,1.312,46.329,0.100,0.000,0.900,0.000,General,31.941,83.206,31.941,83.206,31.941,83.206,31.941,83.206,31.941,83.206
 ElectricEquipment Internal Gains Nominal, SPACE 504 ELECTRIC EQUIPMENT 15 5.0 PERCENT REDUCTION,REFRIGERATEUR,THERMAL ZONE 24,84.59,2.4,110.941,1.312,46.329,0.100,0.000,0.900,0.000,General,31.941,83.206,31.941,83.206,31.941,83.206,31.941,83.206,31.941,83.206
 ElectricEquipment Internal Gains Nominal, SPACE 104 ELECTRIC EQUIPMENT 17 5.0 PERCENT REDUCTION,SECHEUSE,THERMAL ZONE 1,84.59,2.4,262.865,3.108,109.772,0.000,0.200,0.800,0.000,General,2.056E-005,197.149,2.056E-005,197.149,2.056E-005,197.149,2.056E-005,197.149,2.056E-005,197.149
 ElectricEquipment Internal Gains Nominal, SPACE 304 ELECTRIC EQUIPMENT 17 5.0 PERCENT REDUCTION,SECHEUSE,THERMAL ZONE 12,84.59,2.4,262.865,3.108,109.772,0.000,0.200,0.800,0.000,General,2.056E-005,197.149,2.056E-005,197.149,2.056E-005,197.149,2.056E-005,197.149,2.056E-005,197.149
 ElectricEquipment Internal Gains Nominal, SPACE 204 ELECTRIC EQUIPMENT 17 5.0 PERCENT REDUCTION,SECHEUSE,THERMAL ZONE 13,84.59,2.4,262.865,3.108,109.772,0.000,0.200,0.800,0.000,General,2.056E-005,197.149,2.056E-005,197.149,2.056E-005,197.149,2.056E-005,197.149,2.056E-005,197.149
 ElectricEquipment Internal Gains Nominal, SPACE 404 ELECTRIC EQUIPMENT 17 5.0 PERCENT REDUCTION,SECHEUSE,THERMAL ZONE 20,84.59,2.4,262.865,3.108,109.772,0.000,0.200,0.800,0.000,General,2.056E-005,197.149,2.056E-005,197.149,2.056E-005,197.149,2.056E-005,197.149,2.056E-005,197.149
 ElectricEquipment Internal Gains Nominal, SPACE 504 ELECTRIC EQUIPMENT 17 5.0 PERCENT REDUCTION,SECHEUSE,THERMAL ZONE 24,84.59,2.4,262.865,3.108,109.772,0.000,0.200,0.800,0.000,General,2.056E-005,197.149,2.056E-005,197.149,2.056E-005,197.149,2.056E-005,197.149,2.056E-005,197.149
 ElectricEquipment Internal Gains Nominal, SPACE 104 ELECTRIC EQUIPMENT 5 5.0 PERCENT REDUCTION,CHAUFEAU,THERMAL ZONE 1,84.59,2.4,894.520,10.575,373.551,0.100,0.000,0.900,0.000,General,53.746,670.890,53.746,670.890,53.746,670.890,53.746,670.890,53.746,670.890
 ElectricEquipment Internal Gains Nominal, SPACE 304 ELECTRIC EQUIPMENT 5 5.0 PERCENT REDUCTION,CHAUFEAU,THERMAL ZONE 12,84.59,2.4,894.520,10.575,373.551,0.100,0.000,0.900,0.000,General,53.746,670.890,53.746,670.890,53.746,670.890,53.746,670.890,53.746,670.890
 ElectricEquipment Internal Gains Nominal, SPACE 204 ELECTRIC EQUIPMENT 5 5.0 PERCENT REDUCTION,CHAUFEAU,THERMAL ZONE 13,84.59,2.4,894.520,10.575,373.551,0.100,0.000,0.900,0.000,General,53.746,670.890,53.746,670.890,53.746,670.890,53.746,670.890,53.746,670.890
 ElectricEquipment Internal Gains Nominal, SPACE 404 ELECTRIC EQUIPMENT 5 5.0 PERCENT REDUCTION,CHAUFEAU,THERMAL ZONE 20,84.59,2.4,894.520,10.575,373.551,0.100,0.000,0.900,0.000,General,53.746,670.890,53.746,670.890,53.746,670.890,53.746,670.890,53.746,670.890
 ElectricEquipment Internal Gains Nominal, SPACE 504 ELECTRIC EQUIPMENT 5 5.0 PERCENT REDUCTION,CHAUFEAU,THERMAL ZONE 24,84.59,2.4,894.520,10.575,373.551,0.100,0.000,0.900,0.000,General,53.746,670.890,53.746,670.890,53.746,670.890,53.746,670.890,53.746,670.890
 ElectricEquipment Internal Gains Nominal, SPACE 104 ELECTRIC EQUIPMENT 7 5.0 PERCENT REDUCTION,CONGELATEUR,THERMAL ZONE 1,84.59,2.4,16.530,0.195,6.903,0.100,0.000,0.900,0.000,General,5.967,12.398,5.967,12.398,5.967,12.398,5.967,12.398,5.967,12.398
 ElectricEquipment Internal Gains Nominal, SPACE 304 ELECTRIC EQUIPMENT 7 5.0 PERCENT REDUCTION,CONGELATEUR,THERMAL ZONE 12,84.59,2.4,16.530,0.195,6.903,0.100,0.000,0.900,0.000,General,5.967,12.398,5.967,12.398,5.967,12.398,5.967,12.398,5.967,12.398
 ElectricEquipment Internal Gains Nominal, SPACE 204 ELECTRIC EQUIPMENT 7 5.0 PERCENT REDUCTION,CONGELATEUR,THERMAL ZONE 13,84.59,2.4,16.530,0.195,6.903,0.100,0.000,0.900,0.000,General,5.967,12.398,5.967,12.398,5.967,12.398,5.967,12.398,5.967,12.398
 ElectricEquipment Internal Gains Nominal, SPACE 404 ELECTRIC EQUIPMENT 7 5.0 PERCENT REDUCTION,CONGELATEUR,THERMAL ZONE 20,84.59,2.4,16.530,0.195,6.903,0.100,0.000,0.900,0.000,General,5.967,12.398,5.967,12.398,5.967,12.398,5.967,12.398,5.967,12.398
 ElectricEquipment Internal Gains Nominal, SPACE 504 ELECTRIC EQUIPMENT 7 5.0 PERCENT REDUCTION,CONGELATEUR,THERMAL ZONE 24,84.59,2.4,16.530,0.195,6.903,0.100,0.000,0.900,0.000,General,5.967,12.398,5.967,12.398,5.967,12.398,5.967,12.398,5.967,12.398
 ElectricEquipment Internal Gains Nominal, SPACE 104 ELECTRIC EQUIPMENT 9 5.0 PERCENT REDUCTION,FOURCUISINIERE,THERMAL ZONE 1,84.59,2.4,297.350,3.515,124.173,0.100,0.200,0.100,0.600,General,0.178,223.013,0.178,223.013,0.178,223.013,0.178,223.013,0.178,223.013
 ElectricEquipment Internal Gains Nominal, SPACE 304 ELECTRIC EQUIPMENT 9 5.0 PERCENT REDUCTION,FOURCUISINIERE,THERMAL ZONE 12,84.59,2.4,297.350,3.515,124.173,0.100,0.200,0.100,0.600,General,0.178,223.013,0.178,223.013,0.178,223.013,0.178,223.013,0.178,223.013
 ElectricEquipment Internal Gains Nominal, SPACE 204 ELECTRIC EQUIPMENT 9 5.0 PERCENT REDUCTION,FOURCUISINIERE,THERMAL ZONE 13,84.59,2.4,297.350,3.515,124.173,0.100,0.200,0.100,0.600,General,0.178,223.013,0.178,223.013,0.178,223.013,0.178,223.013,0.178,223.013
 ElectricEquipment Internal Gains Nominal, SPACE 404 ELECTRIC EQUIPMENT 9 5.0 PERCENT REDUCTION,FOURCUISINIERE,THERMAL ZONE 20,84.59,2.4,297.350,3.515,124.173,0.100,0.200,0.100,0.600,General,0.178,223.013,0.178,223.013,0.178,223.013,0.178,223.013,0.178,223.013
 ElectricEquipment Internal Gains Nominal, SPACE 504 ELECTRIC EQUIPMENT 9 5.0 PERCENT REDUCTION,FOURCUISINIERE,THERMAL ZONE 24,84.59,2.4,297.350,3.515,124.173,0.100,0.200,0.100,0.600,General,0.178,223.013,0.178,223.013,0.178,223.013,0.178,223.013,0.178,223.013
 ElectricEquipment Internal Gains Nominal, SPACE 101 ELECTRIC EQUIPMENT 10 5.0 PERCENT REDUCTION,FOURCUISINIERE,THERMAL ZONE 2,36.39,1.0,297.350,8.171,288.651,0.100,0.200,0.100,0.600,General,0.178,223.013,0.178,223.013,0.178,223.013,0.178,223.013,0.178,223.013
 ElectricEquipment Internal Gains Nominal, SPACE 503 ELECTRIC EQUIPMENT 10 5.0 PERCENT REDUCTION,FOURCUISINIERE,THERMAL ZONE 3,51.15,1.4,297.350,5.814,205.359,0.100,0.200,0.100,0.600,General,0.178,223.013,0.178,223.013,0.178,223.013,0.178,223.013,0.178,223.013
 ElectricEquipment Internal Gains Nominal, SPACE 201 ELECTRIC EQUIPMENT 10 5.0 PERCENT REDUCTION,FOURCUISINIERE,THERMAL ZONE 4,36.39,1.0,297.350,8.171,288.651,0.100,0.200,0.100,0.600,General,0.178,223.013,0.178,223.013,0.178,223.013,0.178,223.013,0.178,223.013
 ElectricEquipment Internal Gains Nominal, SPACE 401 ELECTRIC EQUIPMENT 10 5.0 PERCENT REDUCTION,FOURCUISINIERE,THERMAL ZONE 5,36.39,1.0,297.350,8.171,288.651,0.100,0.200,0.100,0.600,General,0.178,223.013,0.178,223.013,0.178,223.013,0.178,223.013,0.178,223.013
 ElectricEquipment Internal Gains Nominal, SPACE 303 ELECTRIC EQUIPMENT 10 5.0 PERCENT REDUCTION,FOURCUISINIERE,THERMAL ZONE 7,51.15,1.4,297.350,5.814,205.359,0.100,0.200,0.100,0.600,General,0.178,223.013,0.178,223.013,0.178,223.013,0.178,223.013,0.178,223.013
 ElectricEquipment Internal Gains Nominal, SPACE 103 ELECTRIC EQUIPMENT 10 5.0 PERCENT REDUCTION,FOURCUISINIERE,THERMAL ZONE 8,51.15,1.4,297.350,5.814,205.359,0.100,0.200,0.100,0.600,General,0.178,223.013,0.178,223.013,0.178,223.013,0.178,223.013,0.178,223.013
 ElectricEquipment Internal Gains Nominal, SPACE 105 ELECTRIC EQUIPMENT 10 5.0 PERCENT REDUCTION,FOURCUISINIERE,THERMAL ZONE 10,42.15,1.2,297.350,7.055,249.210,0.100,0.200,0.100,0.600,General,0.178,223.013,0.178,223.013,0.178,223.013,0.178,223.013,0.178,223.013
 ElectricEquipment Internal Gains Nominal, SPACE 203 ELECTRIC EQUIPMENT 10 5.0 PERCENT REDUCTION,FOURCUISINIERE,THERMAL ZONE 11,51.15,1.4,297.350,5.814,205.359,0.100,0.200,0.100,0.600,General,0.178,223.013,0.178,223.013,0.178,223.013,0.178,223.013,0.178,223.013
 ElectricEquipment Internal Gains Nominal, SPACE 205 ELECTRIC EQUIPMENT 10 5.0 PERCENT REDUCTION,FOURCUISINIERE,THERMAL ZONE 14,42.15,1.2,297.350,7.055,249.210,0.100,0.200,0.100,0.600,General,0.178,223.013,0.178,223.013,0.178,223.013,0.178,223.013,0.178,223.013
 ElectricEquipment Internal Gains Nominal, SPACE 301 ELECTRIC EQUIPMENT 10 5.0 PERCENT REDUCTION,FOURCUISINIERE,THERMAL ZONE 15,36.39,1.0,297.350,8.171,288.651,0.100,0.200,0.100,0.600,General,0.178,223.013,0.178,223.013,0.178,223.013,0.178,223.013,0.178,223.013
 ElectricEquipment Internal Gains Nominal, SPACE 305 ELECTRIC EQUIPMENT 10 5.0 PERCENT REDUCTION,FOURCUISINIERE,THERMAL ZONE 17,42.15,1.2,297.350,7.055,249.210,0.100,0.200,0.100,0.600,General,0.178,223.013,0.178,223.013,0.178,223.013,0.178,223.013,0.178,223.013
 ElectricEquipment Internal Gains Nominal, SPACE 403 ELECTRIC EQUIPMENT 10 5.0 PERCENT REDUCTION,FOURCUISINIERE,THERMAL ZONE 19,51.15,1.4,297.350,5.814,205.359,0.100,0.200,0.100,0.600,General,0.178,223.013,0.178,223.013,0.178,223.013,0.178,223.013,0.178,223.013
 ElectricEquipment Internal Gains Nominal, SPACE 405 ELECTRIC EQUIPMENT 10 5.0 PERCENT REDUCTION,FOURCUISINIERE,THERMAL ZONE 21,42.15,1.2,297.350,7.055,249.210,0.100,0.200,0.100,0.600,General,0.178,223.013,0.178,223.013,0.178,223.013,0.178,223.013,0.178,223.013
 ElectricEquipment Internal Gains Nominal, SPACE 501 ELECTRIC EQUIPMENT 10 5.0 PERCENT REDUCTION,FOURCUISINIERE,THERMAL ZONE 22,36.39,1.0,297.350,8.171,288.651,0.100,0.200,0.100,0.600,General,0.178,223.013,0.178,223.013,0.178,223.013,0.178,223.013,0.178,223.013
 ElectricEquipment Internal Gains Nominal, SPACE 505 ELECTRIC EQUIPMENT 10 5.0 PERCENT REDUCTION,FOURCUISINIERE,THERMAL ZONE 25,42.15,1.2,297.350,7.055,249.210,0.100,0.200,0.100,0.600,General,0.178,223.013,0.178,223.013,0.178,223.013,0.178,223.013,0.178,223.013
 ElectricEquipment Internal Gains Nominal, SPACE 101 ELECTRIC EQUIPMENT 12 5.0 PERCENT REDUCTION,LAVEUSE,THERMAL ZONE 2,36.39,1.0,26.429,0.726,25.656,0.000,0.200,0.100,0.700,General,8.490E-002,19.822,8.490E-002,19.822,8.490E-002,19.822,8.490E-002,19.822,8.490E-002,19.822
 ElectricEquipment Internal Gains Nominal, SPACE 503 ELECTRIC EQUIPMENT 12 5.0 PERCENT REDUCTION,LAVEUSE,THERMAL ZONE 3,51.15,1.4,26.429,0.517,18.253,0.000,0.200,0.100,0.700,General,8.490E-002,19.822,8.490E-002,19.822,8.490E-002,19.822,8.490E-002,19.822,8.490E-002,19.822
 ElectricEquipment Internal Gains Nominal, SPACE 201 ELECTRIC EQUIPMENT 12 5.0 PERCENT REDUCTION,LAVEUSE,THERMAL ZONE 4,36.39,1.0,26.429,0.726,25.656,0.000,0.200,0.100,0.700,General,8.490E-002,19.822,8.490E-002,19.822,8.490E-002,19.822,8.490E-002,19.822,8.490E-002,19.822
 ElectricEquipment Internal Gains Nominal, SPACE 401 ELECTRIC EQUIPMENT 12 5.0 PERCENT REDUCTION,LAVEUSE,THERMAL ZONE 5,36.39,1.0,26.429,0.726,25.656,0.000,0.200,0.100,0.700,General,8.490E-002,19.822,8.490E-002,19.822,8.490E-002,19.822,8.490E-002,19.822,8.490E-002,19.822
 ElectricEquipment Internal Gains Nominal, SPACE 303 ELECTRIC EQUIPMENT 12 5.0 PERCENT REDUCTION,LAVEUSE,THERMAL ZONE 7,51.15,1.4,26.429,0.517,18.253,0.000,0.200,0.100,0.700,General,8.490E-002,19.822,8.490E-002,19.822,8.490E-002,19.822,8.490E-002,19.822,8.490E-002,19.822
 ElectricEquipment Internal Gains Nominal, SPACE 103 ELECTRIC EQUIPMENT 12 5.0 PERCENT REDUCTION,LAVEUSE,THERMAL ZONE 8,51.15,1.4,26.429,0.517,18.253,0.000,0.200,0.100,0.700,General,8.490E-002,19.822,8.490E-002,19.822,8.490E-002,19.822,8.490E-002,19.822,8.490E-002,19.822
 ElectricEquipment Internal Gains Nominal, SPACE 105 ELECTRIC EQUIPMENT 12 5.0 PERCENT REDUCTION,LAVEUSE,THERMAL ZONE 10,42.15,1.2,26.429,0.627,22.150,0.000,0.200,0.100,0.700,General,8.490E-002,19.822,8.490E-002,19.822,8.490E-002,19.822,8.490E-002,19.822,8.490E-002,19.822
 ElectricEquipment Internal Gains Nominal, SPACE 203 ELECTRIC EQUIPMENT 12 5.0 PERCENT REDUCTION,LAVEUSE,THERMAL ZONE 11,51.15,1.4,26.429,0.517,18.253,0.000,0.200,0.100,0.700,General,8.490E-002,19.822,8.490E-002,19.822,8.490E-002,19.822,8.490E-002,19.822,8.490E-002,19.822
 ElectricEquipment Internal Gains Nominal, SPACE 205 ELECTRIC EQUIPMENT 12 5.0 PERCENT REDUCTION,LAVEUSE,THERMAL ZONE 14,42.15,1.2,26.429,0.627,22.150,0.000,0.200,0.100,0.700,General,8.490E-002,19.822,8.490E-002,19.822,8.490E-002,19.822,8.490E-002,19.822,8.490E-002,19.822
 ElectricEquipment Internal Gains Nominal, SPACE 301 ELECTRIC EQUIPMENT 12 5.0 PERCENT REDUCTION,LAVEUSE,THERMAL ZONE 15,36.39,1.0,26.429,0.726,25.656,0.000,0.200,0.100,0.700,General,8.490E-002,19.822,8.490E-002,19.822,8.490E-002,19.822,8.490E-002,19.822,8.490E-002,19.822
 ElectricEquipment Internal Gains Nominal, SPACE 305 ELECTRIC EQUIPMENT 12 5.0 PERCENT REDUCTION,LAVEUSE,THERMAL ZONE 17,42.15,1.2,26.429,0.627,22.150,0.000,0.200,0.100,0.700,General,8.490E-002,19.822,8.490E-002,19.822,8.490E-002,19.822,8.490E-002,19.822,8.490E-002,19.822
 ElectricEquipment Internal Gains Nominal, SPACE 403 ELECTRIC EQUIPMENT 12 5.0 PERCENT REDUCTION,LAVEUSE,THERMAL ZONE 19,51.15,1.4,26.429,0.517,18.253,0.000,0.200,0.100,0.700,General,8.490E-002,19.822,8.490E-002,19.822,8.490E-002,19.822,8.490E-002,19.822,8.490E-002,19.822
 ElectricEquipment Internal Gains Nominal, SPACE 405 ELECTRIC EQUIPMENT 12 5.0 PERCENT REDUCTION,LAVEUSE,THERMAL ZONE 21,42.15,1.2,26.429,0.627,22.150,0.000,0.200,0.100,0.700,General,8.490E-002,19.822,8.490E-002,19.822,8.490E-002,19.822,8.490E-002,19.822,8.490E-002,19.822
 ElectricEquipment Internal Gains Nominal, SPACE 501 ELECTRIC EQUIPMENT 12 5.0 PERCENT REDUCTION,LAVEUSE,THERMAL ZONE 22,36.39,1.0,26.429,0.726,25.656,0.000,0.200,0.100,0.700,General,8.490E-002,19.822,8.490E-002,19.822,8.490E-002,19.822,8.490E-002,19.822,8.490E-002,19.822
 ElectricEquipment Internal Gains Nominal, SPACE 505 ELECTRIC EQUIPMENT 12 5.0 PERCENT REDUCTION,LAVEUSE,THERMAL ZONE 25,42.15,1.2,26.429,0.627,22.150,0.000,0.200,0.100,0.700,General,8.490E-002,19.822,8.490E-002,19.822,8.490E-002,19.822,8.490E-002,19.822,8.490E-002,19.822
 ElectricEquipment Internal Gains Nominal, SPACE 101 ELECTRIC EQUIPMENT 14 5.0 PERCENT REDUCTION,LAVEVAISSELLE,THERMAL ZONE 2,36.39,1.0,29.061,0.799,28.210,0.100,0.100,0.800,0.000,General,1.479E-002,21.795,1.479E-002,21.795,1.479E-002,21.795,1.479E-002,21.795,1.479E-002,21.795
 ElectricEquipment Internal Gains Nominal, SPACE 503 ELECTRIC EQUIPMENT 14 5.0 PERCENT REDUCTION,LAVEVAISSELLE,THERMAL ZONE 3,51.15,1.4,29.061,0.568,20.070,0.100,0.100,0.800,0.000,General,1.479E-002,21.795,1.479E-002,21.795,1.479E-002,21.795,1.479E-002,21.795,1.479E-002,21.795
 ElectricEquipment Internal Gains Nominal, SPACE 201 ELECTRIC EQUIPMENT 14 5.0 PERCENT REDUCTION,LAVEVAISSELLE,THERMAL ZONE 4,36.39,1.0,29.061,0.799,28.210,0.100,0.100,0.800,0.000,General,1.479E-002,21.795,1.479E-002,21.795,1.479E-002,21.795,1.479E-002,21.795,1.479E-002,21.795
 ElectricEquipment Internal Gains Nominal, SPACE 401 ELECTRIC EQUIPMENT 14 5.0 PERCENT REDUCTION,LAVEVAISSELLE,THERMAL ZONE 5,36.39,1.0,29.061,0.799,28.210,0.100,0.100,0.800,0.000,General,1.479E-002,21.795,1.479E-002,21.795,1.479E-002,21.795,1.479E-002,21.795,1.479E-002,21.795
 ElectricEquipment Internal Gains Nominal, SPACE 303 ELECTRIC EQUIPMENT 14 5.0 PERCENT REDUCTION,LAVEVAISSELLE,THERMAL ZONE 7,51.15,1.4,29.061,0.568,20.070,0.100,0.100,0.800,0.000,General,1.479E-002,21.795,1.479E-002,21.795,1.479E-002,21.795,1.479E-002,21.795,1.479E-002,21.795
 ElectricEquipment Internal Gains Nominal, SPACE 103 ELECTRIC EQUIPMENT 14 5.0 PERCENT REDUCTION,LAVEVAISSELLE,THERMAL ZONE 8,51.15,1.4,29.061,0.568,20.070,0.100,0.100,0.800,0.000,General,1.479E-002,21.795,1.479E-002,21.795,1.479E-002,21.795,1.479E-002,21.795,1.479E-002,21.795
 ElectricEquipment Internal Gains Nominal, SPACE 105 ELECTRIC EQUIPMENT 14 5.0 PERCENT REDUCTION,LAVEVAISSELLE,THERMAL ZONE 10,42.15,1.2,29.061,0.689,24.356,0.100,0.100,0.800,0.000,General,1.479E-002,21.795,1.479E-002,21.795,1.479E-002,21.795,1.479E-002,21.795,1.479E-002,21.795
 ElectricEquipment Internal Gains Nominal, SPACE 203 ELECTRIC EQUIPMENT 14 5.0 PERCENT REDUCTION,LAVEVAISSELLE,THERMAL ZONE 11,51.15,1.4,29.061,0.568,20.070,0.100,0.100,0.800,0.000,General,1.479E-002,21.795,1.479E-002,21.795,1.479E-002,21.795,1.479E-002,21.795,1.479E-002,21.795
 ElectricEquipment Internal Gains Nominal, SPACE 205 ELECTRIC EQUIPMENT 14 5.0 PERCENT REDUCTION,LAVEVAISSELLE,THERMAL ZONE 14,42.15,1.2,29.061,0.689,24.356,0.100,0.100,0.800,0.000,General,1.479E-002,21.795,1.479E-002,21.795,1.479E-002,21.795,1.479E-002,21.795,1.479E-002,21.795
 ElectricEquipment Internal Gains Nominal, SPACE 301 ELECTRIC EQUIPMENT 14 5.0 PERCENT REDUCTION,LAVEVAISSELLE,THERMAL ZONE 15,36.39,1.0,29.061,0.799,28.210,0.100,0.100,0.800,0.000,General,1.479E-002,21.795,1.479E-002,21.795,1.479E-002,21.795,1.479E-002,21.795,1.479E-002,21.795
 ElectricEquipment Internal Gains Nominal, SPACE 305 ELECTRIC EQUIPMENT 14 5.0 PERCENT REDUCTION,LAVEVAISSELLE,THERMAL ZONE 17,42.15,1.2,29.061,0.689,24.356,0.100,0.100,0.800,0.000,General,1.479E-002,21.795,1.479E-002,21.795,1.479E-002,21.795,1.479E-002,21.795,1.479E-002,21.795
 ElectricEquipment Internal Gains Nominal, SPACE 403 ELECTRIC EQUIPMENT 14 5.0 PERCENT REDUCTION,LAVEVAISSELLE,THERMAL ZONE 19,51.15,1.4,29.061,0.568,20.070,0.100,0.100,0.800,0.000,General,1.479E-002,21.795,1.479E-002,21.795,1.479E-002,21.795,1.479E-002,21.795,1.479E-002,21.795
 ElectricEquipment Internal Gains Nominal, SPACE 405 ELECTRIC EQUIPMENT 14 5.0 PERCENT REDUCTION,LAVEVAISSELLE,THERMAL ZONE 21,42.15,1.2,29.061,0.689,24.356,0.100,0.100,0.800,0.000,General,1.479E-002,21.795,1.479E-002,21.795,1.479E-002,21.795,1.479E-002,21.795,1.479E-002,21.795
 ElectricEquipment Internal Gains Nominal, SPACE 501 ELECTRIC EQUIPMENT 14 5.0 PERCENT REDUCTION,LAVEVAISSELLE,THERMAL ZONE 22,36.39,1.0,29.061,0.799,28.210,0.100,0.100,0.800,0.000,General,1.479E-002,21.795,1.479E-002,21.795,1.479E-002,21.795,1.479E-002,21.795,1.479E-002,21.795
 ElectricEquipment Internal Gains Nominal, SPACE 505 ELECTRIC EQUIPMENT 14 5.0 PERCENT REDUCTION,LAVEVAISSELLE,THERMAL ZONE 25,42.15,1.2,29.061,0.689,24.356,0.100,0.100,0.800,0.000,General,1.479E-002,21.795,1.479E-002,21.795,1.479E-002,21.795,1.479E-002,21.795,1.479E-002,21.795
 ElectricEquipment Internal Gains Nominal, SPACE 101 ELECTRIC EQUIPMENT 16 5.0 PERCENT REDUCTION,REFRIGERATEUR,THERMAL ZONE 2,36.39,1.0,110.941,3.049,107.695,0.100,0.000,0.900,0.000,General,31.941,83.206,31.941,83.206,31.941,83.206,31.941,83.206,31.941,83.206
 ElectricEquipment Internal Gains Nominal, SPACE 503 ELECTRIC EQUIPMENT 16 5.0 PERCENT REDUCTION,REFRIGERATEUR,THERMAL ZONE 3,51.15,1.4,110.941,2.169,76.619,0.100,0.000,0.900,0.000,General,31.941,83.206,31.941,83.206,31.941,83.206,31.941,83.206,31.941,83.206
 ElectricEquipment Internal Gains Nominal, SPACE 201 ELECTRIC EQUIPMENT 16 5.0 PERCENT REDUCTION,REFRIGERATEUR,THERMAL ZONE 4,36.39,1.0,110.941,3.049,107.695,0.100,0.000,0.900,0.000,General,31.941,83.206,31.941,83.206,31.941,83.206,31.941,83.206,31.941,83.206
 ElectricEquipment Internal Gains Nominal, SPACE 401 ELECTRIC EQUIPMENT 16 5.0 PERCENT REDUCTION,REFRIGERATEUR,THERMAL ZONE 5,36.39,1.0,110.941,3.049,107.695,0.100,0.000,0.900,0.000,General,31.941,83.206,31.941,83.206,31.941,83.206,31.941,83.206,31.941,83.206
 ElectricEquipment Internal Gains Nominal, SPACE 303 ELECTRIC EQUIPMENT 16 5.0 PERCENT REDUCTION,REFRIGERATEUR,THERMAL ZONE 7,51.15,1.4,110.941,2.169,76.619,0.100,0.000,0.900,0.000,General,31.941,83.206,31.941,83.206,31.941,83.206,31.941,83.206,31.941,83.206
 ElectricEquipment Internal Gains Nominal, SPACE 103 ELECTRIC EQUIPMENT 16 5.0 PERCENT REDUCTION,REFRIGERATEUR,THERMAL ZONE 8,51.15,1.4,110.941,2.169,76.619,0.100,0.000,0.900,0.000,General,31.941,83.206,31.941,83.206,31.941,83.206,31.941,83.206,31.941,83.206
 ElectricEquipment Internal Gains Nominal, SPACE 105 ELECTRIC EQUIPMENT 16 5.0 PERCENT REDUCTION,REFRIGERATEUR,THERMAL ZONE 10,42.15,1.2,110.941,2.632,92.980,0.100,0.000,0.900,0.000,General,31.941,83.206,31.941,83.206,31.941,83.206,31.941,83.206,31.941,83.206
 ElectricEquipment Internal Gains Nominal, SPACE 203 ELECTRIC EQUIPMENT 16 5.0 PERCENT REDUCTION,REFRIGERATEUR,THERMAL ZONE 11,51.15,1.4,110.941,2.169,76.619,0.100,0.000,0.900,0.000,General,31.941,83.206,31.941,83.206,31.941,83.206,31.941,83.206,31.941,83.206
 ElectricEquipment Internal Gains Nominal, SPACE 205 ELECTRIC EQUIPMENT 16 5.0 PERCENT REDUCTION,REFRIGERATEUR,THERMAL ZONE 14,42.15,1.2,110.941,2.632,92.980,0.100,0.000,0.900,0.000,General,31.941,83.206,31.941,83.206,31.941,83.206,31.941,83.206,31.941,83.206
 ElectricEquipment Internal Gains Nominal, SPACE 301 ELECTRIC EQUIPMENT 16 5.0 PERCENT REDUCTION,REFRIGERATEUR,THERMAL ZONE 15,36.39,1.0,110.941,3.049,107.695,0.100,0.000,0.900,0.000,General,31.941,83.206,31.941,83.206,31.941,83.206,31.941,83.206,31.941,83.206
 ElectricEquipment Internal Gains Nominal, SPACE 305 ELECTRIC EQUIPMENT 16 5.0 PERCENT REDUCTION,REFRIGERATEUR,THERMAL ZONE 17,42.15,1.2,110.941,2.632,92.980,0.100,0.000,0.900,0.000,General,31.941,83.206,31.941,83.206,31.941,83.206,31.941,83.206,31.941,83.206
 ElectricEquipment Internal Gains Nominal, SPACE 403 ELECTRIC EQUIPMENT 16 5.0 PERCENT REDUCTION,REFRIGERATEUR,THERMAL ZONE 19,51.15,1.4,110.941,2.169,76.619,0.100,0.000,0.900,0.000,General,31.941,83.206,31.941,83.206,31.941,83.206,31.941,83.206,31.941,83.206
 ElectricEquipment Internal Gains Nominal, SPACE 405 ELECTRIC EQUIPMENT 16 5.0 PERCENT REDUCTION,REFRIGERATEUR,THERMAL ZONE 21,42.15,1.2,110.941,2.632,92.980,0.100,0.000,0.900,0.000,General,31.941,83.206,31.941,83.206,31.941,83.206,31.941,83.206,31.941,83.206
 ElectricEquipment Internal Gains Nominal, SPACE 501 ELECTRIC EQUIPMENT 16 5.0 PERCENT REDUCTION,REFRIGERATEUR,THERMAL ZONE 22,36.39,1.0,110.941,3.049,107.695,0.100,0.000,0.900,0.000,General,31.941,83.206,31.941,83.206,31.941,83.206,31.941,83.206,31.941,83.206
 ElectricEquipment Internal Gains Nominal, SPACE 505 ELECTRIC EQUIPMENT 16 5.0 PERCENT REDUCTION,REFRIGERATEUR,THERMAL ZONE 25,42.15,1.2,110.941,2.632,92.980,0.100,0.000,0.900,0.000,General,31.941,83.206,31.941,83.206,31.941,83.206,31.941,83.206,31.941,83.206
 ElectricEquipment Internal Gains Nominal, SPACE 101 ELECTRIC EQUIPMENT 18 5.0 PERCENT REDUCTION,SECHEUSE,THERMAL ZONE 2,36.39,1.0,262.865,7.224,255.175,0.000,0.200,0.800,0.000,General,2.056E-005,197.149,2.056E-005,197.149,2.056E-005,197.149,2.056E-005,197.149,2.056E-005,197.149
 ElectricEquipment Internal Gains Nominal, SPACE 503 ELECTRIC EQUIPMENT 18 5.0 PERCENT REDUCTION,SECHEUSE,THERMAL ZONE 3,51.15,1.4,262.865,5.139,181.542,0.000,0.200,0.800,0.000,General,2.056E-005,197.149,2.056E-005,197.149,2.056E-005,197.149,2.056E-005,197.149,2.056E-005,197.149
 ElectricEquipment Internal Gains Nominal, SPACE 201 ELECTRIC EQUIPMENT 18 5.0 PERCENT REDUCTION,SECHEUSE,THERMAL ZONE 4,36.39,1.0,262.865,7.224,255.175,0.000,0.200,0.800,0.000,General,2.056E-005,197.149,2.056E-005,197.149,2.056E-005,197.149,2.056E-005,197.149,2.056E-005,197.149
 ElectricEquipment Internal Gains Nominal, SPACE 401 ELECTRIC EQUIPMENT 18 5.0 PERCENT REDUCTION,SECHEUSE,THERMAL ZONE 5,36.39,1.0,262.865,7.224,255.175,0.000,0.200,0.800,0.000,General,2.056E-005,197.149,2.056E-005,197.149,2.056E-005,197.149,2.056E-005,197.149,2.056E-005,197.149
 ElectricEquipment Internal Gains Nominal, SPACE 303 ELECTRIC EQUIPMENT 18 5.0 PERCENT REDUCTION,SECHEUSE,THERMAL ZONE 7,51.15,1.4,262.865,5.139,181.542,0.000,0.200,0.800,0.000,General,2.056E-005,197.149,2.056E-005,197.149,2.056E-005,197.149,2.056E-005,197.149,2.056E-005,197.149
 ElectricEquipment Internal Gains Nominal, SPACE 103 ELECTRIC EQUIPMENT 18 5.0 PERCENT REDUCTION,SECHEUSE,THERMAL ZONE 8,51.15,1.4,262.865,5.139,181.542,0.000,0.200,0.800,0.000,General,2.056E-005,197.149,2.056E-005,197.149,2.056E-005,197.149,2.056E-005,197.149,2.056E-005,197.149
 ElectricEquipment Internal Gains Nominal, SPACE 105 ELECTRIC EQUIPMENT 18 5.0 PERCENT REDUCTION,SECHEUSE,THERMAL ZONE 10,42.15,1.2,262.865,6.237,220.308,0.000,0.200,0.800,0.000,General,2.056E-005,197.149,2.056E-005,197.149,2.056E-005,197.149,2.056E-005,197.149,2.056E-005,197.149
 ElectricEquipment Internal Gains Nominal, SPACE 203 ELECTRIC EQUIPMENT 18 5.0 PERCENT REDUCTION,SECHEUSE,THERMAL ZONE 11,51.15,1.4,262.865,5.139,181.542,0.000,0.200,0.800,0.000,General,2.056E-005,197.149,2.056E-005,197.149,2.056E-005,197.149,2.056E-005,197.149,2.056E-005,197.149
 ElectricEquipment Internal Gains Nominal, SPACE 205 ELECTRIC EQUIPMENT 18 5.0 PERCENT REDUCTION,SECHEUSE,THERMAL ZONE 14,42.15,1.2,262.865,6.237,220.308,0.000,0.200,0.800,0.000,General,2.056E-005,197.149,2.056E-005,197.149,2.056E-005,197.149,2.056E-005,197.149,2.056E-005,197.149
 ElectricEquipment Internal Gains Nominal, SPACE 301 ELECTRIC EQUIPMENT 18 5.0 PERCENT REDUCTION,SECHEUSE,THERMAL ZONE 15,36.39,1.0,262.865,7.224,255.175,0.000,0.200,0.800,0.000,General,2.056E-005,197.149,2.056E-005,197.149,2.056E-005,197.149,2.056E-005,197.149,2.056E-005,197.149
 ElectricEquipment Internal Gains Nominal, SPACE 305 ELECTRIC EQUIPMENT 18 5.0 PERCENT REDUCTION,SECHEUSE,THERMAL ZONE 17,42.15,1.2,262.865,6.237,220.308,0.000,0.200,0.800,0.000,General,2.056E-005,197.149,2.056E-005,197.149,2.056E-005,197.149,2.056E-005,197.149,2.056E-005,197.149
 ElectricEquipment Internal Gains Nominal, SPACE 403 ELECTRIC EQUIPMENT 18 5.0 PERCENT REDUCTION,SECHEUSE,THERMAL ZONE 19,51.15,1.4,262.865,5.139,181.542,0.000,0.200,0.800,0.000,General,2.056E-005,197.149,2.056E-005,197.149,2.056E-005,197.149,2.056E-005,197.149,2.056E-005,197.149
 ElectricEquipment Internal Gains Nominal, SPACE 405 ELECTRIC EQUIPMENT 18 5.0 PERCENT REDUCTION,SECHEUSE,THERMAL ZONE 21,42.15,1.2,262.865,6.237,220.308,0.000,0.200,0.800,0.000,General,2.056E-005,197.149,2.056E-005,197.149,2.056E-005,197.149,2.056E-005,197.149,2.056E-005,197.149
 ElectricEquipment Internal Gains Nominal, SPACE 501 ELECTRIC EQUIPMENT 18 5.0 PERCENT REDUCTION,SECHEUSE,THERMAL ZONE 22,36.39,1.0,262.865,7.224,255.175,0.000,0.200,0.800,0.000,General,2.056E-005,197.149,2.056E-005,197.149,2.056E-005,197.149,2.056E-005,197.149,2.056E-005,197.149
 ElectricEquipment Internal Gains Nominal, SPACE 505 ELECTRIC EQUIPMENT 18 5.0 PERCENT REDUCTION,SECHEUSE,THERMAL ZONE 25,42.15,1.2,262.865,6.237,220.308,0.000,0.200,0.800,0.000,General,2.056E-005,197.149,2.056E-005,197.149,2.056E-005,197.149,2.056E-005,197.149,2.056E-005,197.149
 ElectricEquipment Internal Gains Nominal, SPACE 101 ELECTRIC EQUIPMENT 2 5.0 PERCENT REDUCTION,AUTRES,THERMAL ZONE 2,36.39,1.0,703.000,19.319,682.434,0.000,0.200,0.000,0.800,General,47.505,527.250,47.505,527.250,47.505,527.250,47.505,527.250,47.505,527.250
 ElectricEquipment Internal Gains Nominal, SPACE 503 ELECTRIC EQUIPMENT 2 5.0 PERCENT REDUCTION,AUTRES,THERMAL ZONE 3,51.15,1.4,703.000,13.744,485.513,0.000,0.200,0.000,0.800,General,47.505,527.250,47.505,527.250,47.505,527.250,47.505,527.250,47.505,527.250
 ElectricEquipment Internal Gains Nominal, SPACE 201 ELECTRIC EQUIPMENT 2 5.0 PERCENT REDUCTION,AUTRES,THERMAL ZONE 4,36.39,1.0,703.000,19.319,682.434,0.000,0.200,0.000,0.800,General,47.505,527.250,47.505,527.250,47.505,527.250,47.505,527.250,47.505,527.250
 ElectricEquipment Internal Gains Nominal, SPACE 401 ELECTRIC EQUIPMENT 2 5.0 PERCENT REDUCTION,AUTRES,THERMAL ZONE 5,36.39,1.0,703.000,19.319,682.434,0.000,0.200,0.000,0.800,General,47.505,527.250,47.505,527.250,47.505,527.250,47.505,527.250,47.505,527.250
 ElectricEquipment Internal Gains Nominal, SPACE 303 ELECTRIC EQUIPMENT 2 5.0 PERCENT REDUCTION,AUTRES,THERMAL ZONE 7,51.15,1.4,703.000,13.744,485.513,0.000,0.200,0.000,0.800,General,47.505,527.250,47.505,527.250,47.505,527.250,47.505,527.250,47.505,527.250
 ElectricEquipment Internal Gains Nominal, SPACE 103 ELECTRIC EQUIPMENT 2 5.0 PERCENT REDUCTION,AUTRES,THERMAL ZONE 8,51.15,1.4,703.000,13.744,485.513,0.000,0.200,0.000,0.800,General,47.505,527.250,47.505,527.250,47.505,527.250,47.505,527.250,47.505,527.250
 ElectricEquipment Internal Gains Nominal, SPACE 105 ELECTRIC EQUIPMENT 2 5.0 PERCENT REDUCTION,AUTRES,THERMAL ZONE 10,42.15,1.2,703.000,16.679,589.186,0.000,0.200,0.000,0.800,General,47.505,527.250,47.505,527.250,47.505,527.250,47.505,527.250,47.505,527.250
 ElectricEquipment Internal Gains Nominal, SPACE 203 ELECTRIC EQUIPMENT 2 5.0 PERCENT REDUCTION,AUTRES,THERMAL ZONE 11,51.15,1.4,703.000,13.744,485.513,0.000,0.200,0.000,0.800,General,47.505,527.250,47.505,527.250,47.505,527.250,47.505,527.250,47.505,527.250
 ElectricEquipment Internal Gains Nominal, SPACE 205 ELECTRIC EQUIPMENT 2 5.0 PERCENT REDUCTION,AUTRES,THERMAL ZONE 14,42.15,1.2,703.000,16.679,589.186,0.000,0.200,0.000,0.800,General,47.505,527.250,47.505,527.250,47.505,527.250,47.505,527.250,47.505,527.250
 ElectricEquipment Internal Gains Nominal, SPACE 301 ELECTRIC EQUIPMENT 2 5.0 PERCENT REDUCTION,AUTRES,THERMAL ZONE 15,36.39,1.0,703.000,19.319,682.434,0.000,0.200,0.000,0.800,General,47.505,527.250,47.505,527.250,47.505,527.250,47.505,527.250,47.505,527.250
 ElectricEquipment Internal Gains Nominal, SPACE 305 ELECTRIC EQUIPMENT 2 5.0 PERCENT REDUCTION,AUTRES,THERMAL ZONE 17,42.15,1.2,703.000,16.679,589.186,0.000,0.200,0.000,0.800,General,47.505,527.250,47.505,527.250,47.505,527.250,47.505,527.250,47.505,527.250
 ElectricEquipment Internal Gains Nominal, SPACE 403 ELECTRIC EQUIPMENT 2 5.0 PERCENT REDUCTION,AUTRES,THERMAL ZONE 19,51.15,1.4,703.000,13.744,485.513,0.000,0.200,0.000,0.800,General,47.505,527.250,47.505,527.250,47.505,527.250,47.505,527.250,47.505,527.250
 ElectricEquipment Internal Gains Nominal, SPACE 405 ELECTRIC EQUIPMENT 2 5.0 PERCENT REDUCTION,AUTRES,THERMAL ZONE 21,42.15,1.2,703.000,16.679,589.186,0.000,0.200,0.000,0.800,General,47.505,527.250,47.505,527.250,47.505,527.250,47.505,527.250,47.505,527.250
 ElectricEquipment Internal Gains Nominal, SPACE 501 ELECTRIC EQUIPMENT 2 5.0 PERCENT REDUCTION,AUTRES,THERMAL ZONE 22,36.39,1.0,703.000,19.319,682.434,0.000,0.200,0.000,0.800,General,47.505,527.250,47.505,527.250,47.505,527.250,47.505,527.250,47.505,527.250
 ElectricEquipment Internal Gains Nominal, SPACE 505 ELECTRIC EQUIPMENT 2 5.0 PERCENT REDUCTION,AUTRES,THERMAL ZONE 25,42.15,1.2,703.000,16.679,589.186,0.000,0.200,0.000,0.800,General,47.505,527.250,47.505,527.250,47.505,527.250,47.505,527.250,47.505,527.250
 ElectricEquipment Internal Gains Nominal, SPACE 101 ELECTRIC EQUIPMENT 6 5.0 PERCENT REDUCTION,CHAUFEAU,THERMAL ZONE 2,36.39,1.0,894.520,24.582,868.351,0.100,0.000,0.900,0.000,General,53.746,670.890,53.746,670.890,53.746,670.890,53.746,670.890,53.746,670.890
 ElectricEquipment Internal Gains Nominal, SPACE 503 ELECTRIC EQUIPMENT 6 5.0 PERCENT REDUCTION,CHAUFEAU,THERMAL ZONE 3,51.15,1.4,894.520,17.489,617.782,0.100,0.000,0.900,0.000,General,53.746,670.890,53.746,670.890,53.746,670.890,53.746,670.890,53.746,670.890
 ElectricEquipment Internal Gains Nominal, SPACE 201 ELECTRIC EQUIPMENT 6 5.0 PERCENT REDUCTION,CHAUFEAU,THERMAL ZONE 4,36.39,1.0,894.520,24.582,868.351,0.100,0.000,0.900,0.000,General,53.746,670.890,53.746,670.890,53.746,670.890,53.746,670.890,53.746,670.890
 ElectricEquipment Internal Gains Nominal, SPACE 401 ELECTRIC EQUIPMENT 6 5.0 PERCENT REDUCTION,CHAUFEAU,THERMAL ZONE 5,36.39,1.0,894.520,24.582,868.351,0.100,0.000,0.900,0.000,General,53.746,670.890,53.746,670.890,53.746,670.890,53.746,670.890,53.746,670.890
 ElectricEquipment Internal Gains Nominal, SPACE 303 ELECTRIC EQUIPMENT 6 5.0 PERCENT REDUCTION,CHAUFEAU,THERMAL ZONE 7,51.15,1.4,894.520,17.489,617.782,0.100,0.000,0.900,0.000,General,53.746,670.890,53.746,670.890,53.746,670.890,53.746,670.890,53.746,670.890
 ElectricEquipment Internal Gains Nominal, SPACE 103 ELECTRIC EQUIPMENT 6 5.0 PERCENT REDUCTION,CHAUFEAU,THERMAL ZONE 8,51.15,1.4,894.520,17.489,617.782,0.100,0.000,0.900,0.000,General,53.746,670.890,53.746,670.890,53.746,670.890,53.746,670.890,53.746,670.890
 ElectricEquipment Internal Gains Nominal, SPACE 105 ELECTRIC EQUIPMENT 6 5.0 PERCENT REDUCTION,CHAUFEAU,THERMAL ZONE 10,42.15,1.2,894.520,21.223,749.699,0.100,0.000,0.900,0.000,General,53.746,670.890,53.746,670.890,53.746,670.890,53.746,670.890,53.746,670.890
 ElectricEquipment Internal Gains Nominal, SPACE 203 ELECTRIC EQUIPMENT 6 5.0 PERCENT REDUCTION,CHAUFEAU,THERMAL ZONE 11,51.15,1.4,894.520,17.489,617.782,0.100,0.000,0.900,0.000,General,53.746,670.890,53.746,670.890,53.746,670.890,53.746,670.890,53.746,670.890
 ElectricEquipment Internal Gains Nominal, SPACE 205 ELECTRIC EQUIPMENT 6 5.0 PERCENT REDUCTION,CHAUFEAU,THERMAL ZONE 14,42.15,1.2,894.520,21.223,749.699,0.100,0.000,0.900,0.000,General,53.746,670.890,53.746,670.890,53.746,670.890,53.746,670.890,53.746,670.890
 ElectricEquipment Internal Gains Nominal, SPACE 301 ELECTRIC EQUIPMENT 6 5.0 PERCENT REDUCTION,CHAUFEAU,THERMAL ZONE 15,36.39,1.0,894.520,24.582,868.351,0.100,0.000,0.900,0.000,General,53.746,670.890,53.746,670.890,53.746,670.890,53.746,670.890,53.746,670.890
 ElectricEquipment Internal Gains Nominal, SPACE 305 ELECTRIC EQUIPMENT 6 5.0 PERCENT REDUCTION,CHAUFEAU,THERMAL ZONE 17,42.15,1.2,894.520,21.223,749.699,0.100,0.000,0.900,0.000,General,53.746,670.890,53.746,670.890,53.746,670.890,53.746,670.890,53.746,670.890
 ElectricEquipment Internal Gains Nominal, SPACE 403 ELECTRIC EQUIPMENT 6 5.0 PERCENT REDUCTION,CHAUFEAU,THERMAL ZONE 19,51.15,1.4,894.520,17.489,617.782,0.100,0.000,0.900,0.000,General,53.746,670.890,53.746,670.890,53.746,670.890,53.746,670.890,53.746,670.890
 ElectricEquipment Internal Gains Nominal, SPACE 405 ELECTRIC EQUIPMENT 6 5.0 PERCENT REDUCTION,CHAUFEAU,THERMAL ZONE 21,42.15,1.2,894.520,21.223,749.699,0.100,0.000,0.900,0.000,General,53.746,670.890,53.746,670.890,53.746,670.890,53.746,670.890,53.746,670.890
 ElectricEquipment Internal Gains Nominal, SPACE 501 ELECTRIC EQUIPMENT 6 5.0 PERCENT REDUCTION,CHAUFEAU,THERMAL ZONE 22,36.39,1.0,894.520,24.582,868.351,0.100,0.000,0.900,0.000,General,53.746,670.890,53.746,670.890,53.746,670.890,53.746,670.890,53.746,670.890
 ElectricEquipment Internal Gains Nominal, SPACE 505 ELECTRIC EQUIPMENT 6 5.0 PERCENT REDUCTION,CHAUFEAU,THERMAL ZONE 25,42.15,1.2,894.520,21.223,749.699,0.100,0.000,0.900,0.000,General,53.746,670.890,53.746,670.890,53.746,670.890,53.746,670.890,53.746,670.890
 ElectricEquipment Internal Gains Nominal, SPACE 101 ELECTRIC EQUIPMENT 8 5.0 PERCENT REDUCTION,CONGELATEUR,THERMAL ZONE 2,36.39,1.0,16.530,0.454,16.046,0.100,0.000,0.900,0.000,General,5.967,12.398,5.967,12.398,5.967,12.398,5.967,12.398,5.967,12.398
 ElectricEquipment Internal Gains Nominal, SPACE 503 ELECTRIC EQUIPMENT 8 5.0 PERCENT REDUCTION,CONGELATEUR,THERMAL ZONE 3,51.15,1.4,16.530,0.323,11.416,0.100,0.000,0.900,0.000,General,5.967,12.398,5.967,12.398,5.967,12.398,5.967,12.398,5.967,12.398
 ElectricEquipment Internal Gains Nominal, SPACE 201 ELECTRIC EQUIPMENT 8 5.0 PERCENT REDUCTION,CONGELATEUR,THERMAL ZONE 4,36.39,1.0,16.530,0.454,16.046,0.100,0.000,0.900,0.000,General,5.967,12.398,5.967,12.398,5.967,12.398,5.967,12.398,5.967,12.398
 ElectricEquipment Internal Gains Nominal, SPACE 401 ELECTRIC EQUIPMENT 8 5.0 PERCENT REDUCTION,CONGELATEUR,THERMAL ZONE 5,36.39,1.0,16.530,0.454,16.046,0.100,0.000,0.900,0.000,General,5.967,12.398,5.967,12.398,5.967,12.398,5.967,12.398,5.967,12.398
 ElectricEquipment Internal Gains Nominal, SPACE 303 ELECTRIC EQUIPMENT 8 5.0 PERCENT REDUCTION,CONGELATEUR,THERMAL ZONE 7,51.15,1.4,16.530,0.323,11.416,0.100,0.000,0.900,0.000,General,5.967,12.398,5.967,12.398,5.967,12.398,5.967,12.398,5.967,12.398
 ElectricEquipment Internal Gains Nominal, SPACE 103 ELECTRIC EQUIPMENT 8 5.0 PERCENT REDUCTION,CONGELATEUR,THERMAL ZONE 8,51.15,1.4,16.530,0.323,11.416,0.100,0.000,0.900,0.000,General,5.967,12.398,5.967,12.398,5.967,12.398,5.967,12.398,5.967,12.398
 ElectricEquipment Internal Gains Nominal, SPACE 105 ELECTRIC EQUIPMENT 8 5.0 PERCENT REDUCTION,CONGELATEUR,THERMAL ZONE 10,42.15,1.2,16.530,0.392,13.854,0.100,0.000,0.900,0.000,General,5.967,12.398,5.967,12.398,5.967,12.398,5.967,12.398,5.967,12.398
 ElectricEquipment Internal Gains Nominal, SPACE 203 ELECTRIC EQUIPMENT 8 5.0 PERCENT REDUCTION,CONGELATEUR,THERMAL ZONE 11,51.15,1.4,16.530,0.323,11.416,0.100,0.000,0.900,0.000,General,5.967,12.398,5.967,12.398,5.967,12.398,5.967,12.398,5.967,12.398
 ElectricEquipment Internal Gains Nominal, SPACE 205 ELECTRIC EQUIPMENT 8 5.0 PERCENT REDUCTION,CONGELATEUR,THERMAL ZONE 14,42.15,1.2,16.530,0.392,13.854,0.100,0.000,0.900,0.000,General,5.967,12.398,5.967,12.398,5.967,12.398,5.967,12.398,5.967,12.398
 ElectricEquipment Internal Gains Nominal, SPACE 301 ELECTRIC EQUIPMENT 8 5.0 PERCENT REDUCTION,CONGELATEUR,THERMAL ZONE 15,36.39,1.0,16.530,0.454,16.046,0.100,0.000,0.900,0.000,General,5.967,12.398,5.967,12.398,5.967,12.398,5.967,12.398,5.967,12.398
 ElectricEquipment Internal Gains Nominal, SPACE 305 ELECTRIC EQUIPMENT 8 5.0 PERCENT REDUCTION,CONGELATEUR,THERMAL ZONE 17,42.15,1.2,16.530,0.392,13.854,0.100,0.000,0.900,0.000,General,5.967,12.398,5.967,12.398,5.967,12.398,5.967,12.398,5.967,12.398
 ElectricEquipment Internal Gains Nominal, SPACE 403 ELECTRIC EQUIPMENT 8 5.0 PERCENT REDUCTION,CONGELATEUR,THERMAL ZONE 19,51.15,1.4,16.530,0.323,11.416,0.100,0.000,0.900,0.000,General,5.967,12.398,5.967,12.398,5.967,12.398,5.967,12.398,5.967,12.398
 ElectricEquipment Internal Gains Nominal, SPACE 405 ELECTRIC EQUIPMENT 8 5.0 PERCENT REDUCTION,CONGELATEUR,THERMAL ZONE 21,42.15,1.2,16.530,0.392,13.854,0.100,0.000,0.900,0.000,General,5.967,12.398,5.967,12.398,5.967,12.398,5.967,12.398,5.967,12.398
 ElectricEquipment Internal Gains Nominal, SPACE 501 ELECTRIC EQUIPMENT 8 5.0 PERCENT REDUCTION,CONGELATEUR,THERMAL ZONE 22,36.39,1.0,16.530,0.454,16.046,0.100,0.000,0.900,0.000,General,5.967,12.398,5.967,12.398,5.967,12.398,5.967,12.398,5.967,12.398
 ElectricEquipment Internal Gains Nominal, SPACE 505 ELECTRIC EQUIPMENT 8 5.0 PERCENT REDUCTION,CONGELATEUR,THERMAL ZONE 25,42.15,1.2,16.530,0.392,13.854,0.100,0.000,0.900,0.000,General,5.967,12.398,5.967,12.398,5.967,12.398,5.967,12.398,5.967,12.398
! <ZoneInfiltration Airflow Stats Nominal>,Name,Schedule Name,Zone Name, Zone Floor Area {m2}, # Zone Occupants,Design Volume Flow Rate {m3/s},Volume Flow Rate/Floor Area {m3/s-m2},Volume Flow Rate/Exterior Surface Area {m3/s-m2},ACH - Air Changes per Hour,Equation A - Constant Term Coefficient {},Equation B - Temperature Term Coefficient {1/C},Equation C - Velocity Term Coefficient {s/m}, Equation D - Velocity Squared Term Coefficient {s2/m2}
 ZoneInfiltration Airflow Stats Nominal, SPACE 104 HVAC OFF INFILTRATION,INFILTRATION HVAC OFF SCHEDULE,THERMAL ZONE 1,84.59,2.4,3.245E-002,3.836E-004,5.579E-004,0.453,0.107,1.199E-002,0.000,1.348E-002
 ZoneInfiltration Airflow Stats Nominal, SPACE 104 HVAC ON INFILTRATION,INFILTRATION HVAC ON SCHEDULE,THERMAL ZONE 1,84.59,2.4,3.245E-002,3.836E-004,5.579E-004,0.453,0.107,1.199E-002,0.000,1.348E-002
 ZoneInfiltration Airflow Stats Nominal, SPACE 105 HVAC OFF INFILTRATION,INFILTRATION HVAC OFF SCHEDULE,THERMAL ZONE 10,42.15,1.2,2.444E-002,5.798E-004,5.579E-004,0.685,0.107,1.199E-002,0.000,1.348E-002
 ZoneInfiltration Airflow Stats Nominal, SPACE 105 HVAC ON INFILTRATION,INFILTRATION HVAC ON SCHEDULE,THERMAL ZONE 10,42.15,1.2,2.444E-002,5.798E-004,5.579E-004,0.685,0.107,1.199E-002,0.000,1.348E-002
 ZoneInfiltration Airflow Stats Nominal, SPACE 203 HVAC OFF INFILTRATION,INFILTRATION HVAC OFF SCHEDULE,THERMAL ZONE 11,51.15,1.4,2.444E-002,4.777E-004,5.579E-004,0.564,0.107,1.199E-002,0.000,1.348E-002
 ZoneInfiltration Airflow Stats Nominal, SPACE 203 HVAC ON INFILTRATION,INFILTRATION HVAC ON SCHEDULE,THERMAL ZONE 11,51.15,1.4,2.444E-002,4.777E-004,5.579E-004,0.564,0.107,1.199E-002,0.000,1.348E-002
 ZoneInfiltration Airflow Stats Nominal, SPACE 304 HVAC OFF INFILTRATION,INFILTRATION HVAC OFF SCHEDULE,THERMAL ZONE 12,84.59,2.4,3.245E-002,3.836E-004,5.579E-004,0.453,0.107,1.199E-002,0.000,1.348E-002
 ZoneInfiltration Airflow Stats Nominal, SPACE 304 HVAC ON INFILTRATION,INFILTRATION HVAC ON SCHEDULE,THERMAL ZONE 12,84.59,2.4,3.245E-002,3.836E-004,5.579E-004,0.453,0.107,1.199E-002,0.000,1.348E-002
 ZoneInfiltration Airflow Stats Nominal, SPACE 204 HVAC OFF INFILTRATION,INFILTRATION HVAC OFF SCHEDULE,THERMAL ZONE 13,84.59,2.4,3.245E-002,3.836E-004,5.579E-004,0.453,0.107,1.199E-002,0.000,1.348E-002
 ZoneInfiltration Airflow Stats Nominal, SPACE 204 HVAC ON INFILTRATION,INFILTRATION HVAC ON SCHEDULE,THERMAL ZONE 13,84.59,2.4,3.245E-002,3.836E-004,5.579E-004,0.453,0.107,1.199E-002,0.000,1.348E-002
 ZoneInfiltration Airflow Stats Nominal, SPACE 205 HVAC OFF INFILTRATION,INFILTRATION HVAC OFF SCHEDULE,THERMAL ZONE 14,42.15,1.2,2.444E-002,5.798E-004,5.579E-004,0.685,0.107,1.199E-002,0.000,1.348E-002
 ZoneInfiltration Airflow Stats Nominal, SPACE 205 HVAC ON INFILTRATION,INFILTRATION HVAC ON SCHEDULE,THERMAL ZONE 14,42.15,1.2,2.444E-002,5.798E-004,5.579E-004,0.685,0.107,1.199E-002,0.000,1.348E-002
 ZoneInfiltration Airflow Stats Nominal, SPACE 301 HVAC OFF INFILTRATION,INFILTRATION HVAC OFF SCHEDULE,THERMAL ZONE 15,36.39,1.0,2.896E-002,7.959E-004,5.579E-004,0.940,0.107,1.199E-002,0.000,1.348E-002
 ZoneInfiltration Airflow Stats Nominal, SPACE 301 HVAC ON INFILTRATION,INFILTRATION HVAC ON SCHEDULE,THERMAL ZONE 15,36.39,1.0,2.896E-002,7.959E-004,5.579E-004,0.940,0.107,1.199E-002,0.000,1.348E-002
 ZoneInfiltration Airflow Stats Nominal, SPACE 302 HVAC OFF INFILTRATION,INFILTRATION HVAC OFF SCHEDULE,THERMAL ZONE 16,50.73,0.0,1.235E-002,2.435E-004,5.579E-004,0.288,0.107,1.199E-002,0.000,1.348E-002
 ZoneInfiltration Airflow Stats Nominal, SPACE 302 HVAC ON INFILTRATION,INFILTRATION HVAC ON SCHEDULE,THERMAL ZONE 16,50.73,0.0,1.235E-002,2.435E-004,5.579E-004,0.288,0.107,1.199E-002,0.000,1.348E-002
 ZoneInfiltration Airflow Stats Nominal, SPACE 305 HVAC OFF INFILTRATION,INFILTRATION HVAC OFF SCHEDULE,THERMAL ZONE 17,42.15,1.2,2.444E-002,5.798E-004,5.579E-004,0.685,0.107,1.199E-002,0.000,1.348E-002
 ZoneInfiltration Airflow Stats Nominal, SPACE 305 HVAC ON INFILTRATION,INFILTRATION HVAC ON SCHEDULE,THERMAL ZONE 17,42.15,1.2,2.444E-002,5.798E-004,5.579E-004,0.685,0.107,1.199E-002,0.000,1.348E-002
 ZoneInfiltration Airflow Stats Nominal, SPACE 402 HVAC OFF INFILTRATION,INFILTRATION HVAC OFF SCHEDULE,THERMAL ZONE 18,50.73,0.0,1.235E-002,2.435E-004,5.579E-004,0.288,0.107,1.199E-002,0.000,1.348E-002
 ZoneInfiltration Airflow Stats Nominal, SPACE 402 HVAC ON INFILTRATION,INFILTRATION HVAC ON SCHEDULE,THERMAL ZONE 18,50.73,0.0,1.235E-002,2.435E-004,5.579E-004,0.288,0.107,1.199E-002,0.000,1.348E-002
 ZoneInfiltration Airflow Stats Nominal, SPACE 403 HVAC OFF INFILTRATION,INFILTRATION HVAC OFF SCHEDULE,THERMAL ZONE 19,51.15,1.4,2.444E-002,4.777E-004,5.579E-004,0.564,0.107,1.199E-002,0.000,1.348E-002
 ZoneInfiltration Airflow Stats Nominal, SPACE 403 HVAC ON INFILTRATION,INFILTRATION HVAC ON SCHEDULE,THERMAL ZONE 19,51.15,1.4,2.444E-002,4.777E-004,5.579E-004,0.564,0.107,1.199E-002,0.000,1.348E-002
 ZoneInfiltration Airflow Stats Nominal, SPACE 101 HVAC OFF INFILTRATION,INFILTRATION HVAC OFF SCHEDULE,THERMAL ZONE 2,36.39,1.0,2.896E-002,7.959E-004,5.579E-004,0.940,0.107,1.199E-002,0.000,1.348E-002
 ZoneInfiltration Airflow Stats Nominal, SPACE 101 HVAC ON INFILTRATION,INFILTRATION HVAC ON SCHEDULE,THERMAL ZONE 2,36.39,1.0,2.896E-002,7.959E-004,5.579E-004,0.940,0.107,1.199E-002,0.000,1.348E-002
 ZoneInfiltration Airflow Stats Nominal, SPACE 404 HVAC OFF INFILTRATION,INFILTRATION HVAC OFF SCHEDULE,THERMAL ZONE 20,84.59,2.4,3.245E-002,3.836E-004,5.579E-004,0.453,0.107,1.199E-002,0.000,1.348E-002
 ZoneInfiltration Airflow Stats Nominal, SPACE 404 HVAC ON INFILTRATION,INFILTRATION HVAC ON SCHEDULE,THERMAL ZONE 20,84.59,2.4,3.245E-002,3.836E-004,5.579E-004,0.453,0.107,1.199E-002,0.000,1.348E-002
 ZoneInfiltration Airflow Stats Nominal, SPACE 405 HVAC OFF INFILTRATION,INFILTRATION HVAC OFF SCHEDULE,THERMAL ZONE 21,42.15,1.2,2.444E-002,5.798E-004,5.579E-004,0.685,0.107,1.199E-002,0.000,1.348E-002
 ZoneInfiltration Airflow Stats Nominal, SPACE 405 HVAC ON INFILTRATION,INFILTRATION HVAC ON SCHEDULE,THERMAL ZONE 21,42.15,1.2,2.444E-002,5.798E-004,5.579E-004,0.685,0.107,1.199E-002,0.000,1.348E-002
 ZoneInfiltration Airflow Stats Nominal, SPACE 501 HVAC OFF INFILTRATION,INFILTRATION HVAC OFF SCHEDULE,THERMAL ZONE 22,36.39,1.0,4.926E-002,1.354E-003,5.579E-004,1.599,0.107,1.199E-002,0.000,1.348E-002
 ZoneInfiltration Airflow Stats Nominal, SPACE 501 HVAC ON INFILTRATION,INFILTRATION HVAC ON SCHEDULE,THERMAL ZONE 22,36.39,1.0,4.926E-002,1.354E-003,5.579E-004,1.599,0.107,1.199E-002,0.000,1.348E-002
 ZoneInfiltration Airflow Stats Nominal, SPACE 502 HVAC OFF INFILTRATION,INFILTRATION HVAC OFF SCHEDULE,THERMAL ZONE 23,50.73,0.0,4.065E-002,8.014E-004,5.579E-004,0.947,0.107,1.199E-002,0.000,1.348E-002
 ZoneInfiltration Airflow Stats Nominal, SPACE 502 HVAC ON INFILTRATION,INFILTRATION HVAC ON SCHEDULE,THERMAL ZONE 23,50.73,0.0,4.065E-002,8.014E-004,5.579E-004,0.947,0.107,1.199E-002,0.000,1.348E-002
 ZoneInfiltration Airflow Stats Nominal, SPACE 504 HVAC OFF INFILTRATION,INFILTRATION HVAC OFF SCHEDULE,THERMAL ZONE 24,84.59,2.4,7.964E-002,9.415E-004,5.579E-004,1.112,0.107,1.199E-002,0.000,1.348E-002
 ZoneInfiltration Airflow Stats Nominal, SPACE 504 HVAC ON INFILTRATION,INFILTRATION HVAC ON SCHEDULE,THERMAL ZONE 24,84.59,2.4,7.964E-002,9.415E-004,5.579E-004,1.112,0.107,1.199E-002,0.000,1.348E-002
 ZoneInfiltration Airflow Stats Nominal, SPACE 505 HVAC OFF INFILTRATION,INFILTRATION HVAC OFF SCHEDULE,THERMAL ZONE 25,42.15,1.2,4.795E-002,1.138E-003,5.579E-004,1.344,0.107,1.199E-002,0.000,1.348E-002
 ZoneInfiltration Airflow Stats Nominal, SPACE 505 HVAC ON INFILTRATION,INFILTRATION HVAC ON SCHEDULE,THERMAL ZONE 25,42.15,1.2,4.795E-002,1.138E-003,5.579E-004,1.344,0.107,1.199E-002,0.000,1.348E-002
 ZoneInfiltration Airflow Stats Nominal, SPACE 503 HVAC OFF INFILTRATION,INFILTRATION HVAC OFF SCHEDULE,THERMAL ZONE 3,51.15,1.4,5.297E-002,1.036E-003,5.579E-004,1.223,0.107,1.199E-002,0.000,1.348E-002
 ZoneInfiltration Airflow Stats Nominal, SPACE 503 HVAC ON INFILTRATION,INFILTRATION HVAC ON SCHEDULE,THERMAL ZONE 3,51.15,1.4,5.297E-002,1.036E-003,5.579E-004,1.223,0.107,1.199E-002,0.000,1.348E-002
 ZoneInfiltration Airflow Stats Nominal, SPACE 201 HVAC OFF INFILTRATION,INFILTRATION HVAC OFF SCHEDULE,THERMAL ZONE 4,36.39,1.0,2.896E-002,7.959E-004,5.579E-004,0.940,0.107,1.199E-002,0.000,1.348E-002
 ZoneInfiltration Airflow Stats Nominal, SPACE 201 HVAC ON INFILTRATION,INFILTRATION HVAC ON SCHEDULE,THERMAL ZONE 4,36.39,1.0,2.896E-002,7.959E-004,5.579E-004,0.940,0.107,1.199E-002,0.000,1.348E-002
 ZoneInfiltration Airflow Stats Nominal, SPACE 401 HVAC OFF INFILTRATION,INFILTRATION HVAC OFF SCHEDULE,THERMAL ZONE 5,36.39,1.0,2.896E-002,7.959E-004,5.579E-004,0.940,0.107,1.199E-002,0.000,1.348E-002
 ZoneInfiltration Airflow Stats Nominal, SPACE 401 HVAC ON INFILTRATION,INFILTRATION HVAC ON SCHEDULE,THERMAL ZONE 5,36.39,1.0,2.896E-002,7.959E-004,5.579E-004,0.940,0.107,1.199E-002,0.000,1.348E-002
 ZoneInfiltration Airflow Stats Nominal, SPACE 102 HVAC OFF INFILTRATION,INFILTRATION HVAC OFF SCHEDULE,THERMAL ZONE 6,50.73,0.0,1.235E-002,2.435E-004,5.579E-004,0.288,0.107,1.199E-002,0.000,1.348E-002
 ZoneInfiltration Airflow Stats Nominal, SPACE 102 HVAC ON INFILTRATION,INFILTRATION HVAC ON SCHEDULE,THERMAL ZONE 6,50.73,0.0,1.235E-002,2.435E-004,5.579E-004,0.288,0.107,1.199E-002,0.000,1.348E-002
 ZoneInfiltration Airflow Stats Nominal, SPACE 303 HVAC OFF INFILTRATION,INFILTRATION HVAC OFF SCHEDULE,THERMAL ZONE 7,51.15,1.4,2.444E-002,4.777E-004,5.579E-004,0.564,0.107,1.199E-002,0.000,1.348E-002
 ZoneInfiltration Airflow Stats Nominal, SPACE 303 HVAC ON INFILTRATION,INFILTRATION HVAC ON SCHEDULE,THERMAL ZONE 7,51.15,1.4,2.444E-002,4.777E-004,5.579E-004,0.564,0.107,1.199E-002,0.000,1.348E-002
[...]
 Warmup Convergence Information,THERMAL ZONE 6,SizingPeriod: MONTREAL INT'L ANN HTG WIND 99.6% CONDNS WS=>MCDB,2.9665242169E-006,2.0113549888E-006,Pass,Pass,2.8877570759E-004,1.9532495035E-004,Pass,Pass
 Warmup Convergence Information,THERMAL ZONE 7,SizingPeriod: MONTREAL INT'L ANN HTG WIND 99.6% CONDNS WS=>MCDB,1.3179631048E-005,1.0494362306E-005,Pass,Pass,4.4405698342E-003,8.7179323493E-003,Pass,Pass
 Warmup Convergence Information,THERMAL ZONE 8,SizingPeriod: MONTREAL INT'L ANN HTG WIND 99.6% CONDNS WS=>MCDB,1.0012431091E-005,7.3970057133E-006,Pass,Pass,5.0783121453E-003,1.0146264858E-002,Pass,Pass
 Warmup Convergence Information,THERMAL ZONE 9,SizingPeriod: MONTREAL INT'L ANN HTG WIND 99.6% CONDNS WS=>MCDB,3.8683062077E-006,2.5587797018E-006,Pass,Pass,3.4014439513E-004,2.2580025282E-004,Pass,Pass
Environment,MONTREAL INT'L ANN HUM_N 99% CONDNS DP=>MCDB,SizingPeriod:DesignDay,01/21,01/21,WinterDesignDay,1,N/A,N/A,N/A,N/A,N/A,N/A,Clark and Allen
Environment:Daylight Saving,No,SizingPeriod:DesignDay
Environment:Design Day Data,-20.60,0.00,DefaultMultipliers,Dewpoint,-27.90,{C},100893,260,3.9,0.00,No,No
Environment:Design Day Misc, 21,1229.0,0.1415,5.7310E-002,1.0,-11.15,-20.1,ASHRAEClearSky
Environment:WarmupDays,  3
 Warmup Convergence Information,THERMAL ZONE 1,SizingPeriod: MONTREAL INT'L ANN HUM_N 99% CONDNS DP=>MCDB,4.6391958416E-006,3.4804942433E-006,Pass,Pass,2.7406602071E-003,5.4072771559E-003,Pass,Pass
 Warmup Convergence Information,THERMAL ZONE 10,SizingPeriod: MONTREAL INT'L ANN HUM_N 99% CONDNS DP=>MCDB,9.1131179954E-006,6.9836429304E-006,Pass,Pass,3.5926950043E-003,7.1431946764E-003,Pass,Pass
 Warmup Convergence Information,THERMAL ZONE 11,SizingPeriod: MONTREAL INT'L ANN HUM_N 99% CONDNS DP=>MCDB,9.7288637509E-006,7.9968085604E-006,Pass,Pass,3.6201312389E-003,7.0591805457E-003,Pass,Pass
 Warmup Convergence Information,THERMAL ZONE 12,SizingPeriod: MONTREAL INT'L ANN HUM_N 99% CONDNS DP=>MCDB,6.2208841169E-006,5.1195842814E-006,Pass,Pass,2.7600128827E-003,5.3556069667E-003,Pass,Pass
 Warmup Convergence Information,THERMAL ZONE 13,SizingPeriod: MONTREAL INT'L ANN HUM_N 99% CONDNS DP=>MCDB,6.0882822940E-006,5.0345023636E-006,Pass,Pass,2.8061140372E-003,5.4476464865E-003,Pass,Pass
 Warmup Convergence Information,THERMAL ZONE 14,SizingPeriod: MONTREAL INT'L ANN HUM_N 99% CONDNS DP=>MCDB,1.1427750607E-005,9.4851233901E-006,Pass,Pass,3.6058895435E-003,7.0580189501E-003,Pass,Pass
 Warmup Convergence Information,THERMAL ZONE 15,SizingPeriod: MONTREAL INT'L ANN HUM_N 99% CONDNS DP=>MCDB,1.2206227852E-005,1.0377275298E-005,Pass,Pass,2.9438159911E-003,5.7936564403E-003,Pass,Pass
 Warmup Convergence Information,THERMAL ZONE 16,SizingPeriod: MONTREAL INT'L ANN HUM_N 99% CONDNS DP=>MCDB,2.8296571188E-006,1.9132946080E-006,Pass,Pass,2.6745257619E-004,1.8147401689E-004,Pass,Pass
 Warmup Convergence Information,THERMAL ZONE 17,SizingPeriod: MONTREAL INT'L ANN HUM_N 99% CONDNS DP=>MCDB,1.1471120833E-005,9.4838865784E-006,Pass,Pass,3.5498339935E-003,6.9459655308E-003,Pass,Pass
 Warmup Convergence Information,THERMAL ZONE 18,SizingPeriod: MONTREAL INT'L ANN HUM_N 99% CONDNS DP=>MCDB,2.7927387107E-006,1.8984796017E-006,Pass,Pass,2.5420877561E-004,1.7272339767E-004,Pass,Pass
 Warmup Convergence Information,THERMAL ZONE 19,SizingPeriod: MONTREAL INT'L ANN HUM_N 99% CONDNS DP=>MCDB,9.6974910483E-006,7.9558024383E-006,Pass,Pass,3.3986572108E-003,6.6127353727E-003,Pass,Pass
 Warmup Convergence Information,THERMAL ZONE 2,SizingPeriod: MONTREAL INT'L ANN HUM_N 99% CONDNS DP=>MCDB,9.7770538769E-006,7.6608867067E-006,Pass,Pass,3.0318236379E-003,6.0559581397E-003,Pass,Pass
 Warmup Convergence Information,THERMAL ZONE 20,SizingPeriod: MONTREAL INT'L ANN HUM_N 99% CONDNS DP=>MCDB,6.0413665577E-006,4.9932438430E-006,Pass,Pass,2.6112572405E-003,5.0568631797E-003,Pass,Pass
 Warmup Convergence Information,THERMAL ZONE 21,SizingPeriod: MONTREAL INT'L ANN HUM_N 99% CONDNS DP=>MCDB,1.1398120306E-005,9.4401587874E-006,Pass,Pass,3.4154111280E-003,6.6734595453E-003,Pass,Pass
 Warmup Convergence Information,THERMAL ZONE 22,SizingPeriod: MONTREAL INT'L ANN HUM_N 99% CONDNS DP=>MCDB,1.4241954222E-005,1.3602231368E-005,Pass,Pass,1.8666129533E-003,3.6215694534E-003,Pass,Pass
 Warmup Convergence Information,THERMAL ZONE 23,SizingPeriod: MONTREAL INT'L ANN HUM_N 99% CONDNS DP=>MCDB,3.6512294526E-006,2.6410843761E-006,Pass,Pass,1.3831435177E-004,1.0178080727E-004,Pass,Pass
 Warmup Convergence Information,THERMAL ZONE 24,SizingPeriod: MONTREAL INT'L ANN HUM_N 99% CONDNS DP=>MCDB,7.8204965887E-006,7.1187676034E-006,Pass,Pass,1.2989550984E-003,2.4480200134E-003,Pass,Pass
 Warmup Convergence Information,THERMAL ZONE 25,SizingPeriod: MONTREAL INT'L ANN HUM_N 99% CONDNS DP=>MCDB,1.3720385121E-005,1.2665789799E-005,Pass,Pass,1.9790380202E-003,3.7994781105E-003,Pass,Pass
 Warmup Convergence Information,THERMAL ZONE 3,SizingPeriod: MONTREAL INT'L ANN HUM_N 99% CONDNS DP=>MCDB,1.2146737100E-005,1.1109949334E-005,Pass,Pass,1.8361875481E-003,3.4946499298E-003,Pass,Pass
 Warmup Convergence Information,THERMAL ZONE 4,SizingPeriod: MONTREAL INT'L ANN HUM_N 99% CONDNS DP=>MCDB,1.2134235856E-005,1.0358259538E-005,Pass,Pass,2.9942778823E-003,5.8952858860E-003,Pass,Pass
 Warmup Convergence Information,THERMAL ZONE 5,SizingPeriod: MONTREAL INT'L ANN HUM_N 99% CONDNS DP=>MCDB,1.2132061912E-005,1.0312272345E-005,Pass,Pass,2.8551464867E-003,5.6134355654E-003,Pass,Pass
 Warmup Convergence Information,THERMAL ZONE 6,SizingPeriod: MONTREAL INT'L ANN HUM_N 99% CONDNS DP=>MCDB,2.2768909059E-006,1.5708951476E-006,Pass,Pass,2.2316387606E-004,1.5372741159E-004,Pass,Pass
 Warmup Convergence Information,THERMAL ZONE 7,SizingPeriod: MONTREAL INT'L ANN HUM_N 99% CONDNS DP=>MCDB,9.8322784530E-006,8.0589347404E-006,Pass,Pass,3.5593042930E-003,6.9368412446E-003,Pass,Pass
 Warmup Convergence Information,THERMAL ZONE 8,SizingPeriod: MONTREAL INT'L ANN HUM_N 99% CONDNS DP=>MCDB,7.6603949142E-006,5.7774468579E-006,Pass,Pass,3.5815770168E-003,7.1055985494E-003,Pass,Pass
 Warmup Convergence Information,THERMAL ZONE 9,SizingPeriod: MONTREAL INT'L ANN HUM_N 99% CONDNS DP=>MCDB,2.8124508689E-006,1.9071243223E-006,Pass,Pass,2.7090150601E-004,1.8433707939E-004,Pass,Pass
Environment,MONTREAL INT'L ANN HUM_N 99.6% CONDNS DP=>MCDB,SizingPeriod:DesignDay,01/21,01/21,WinterDesignDay,1,N/A,N/A,N/A,N/A,N/A,N/A,Clark and Allen
Environment:Daylight Saving,No,SizingPeriod:DesignDay
Environment:Design Day Data,-23.00,0.00,DefaultMultipliers,Dewpoint,-30.50,{C},100893,260,3.9,0.00,No,No
Environment:Design Day Misc, 21,1229.0,0.1415,5.7310E-002,1.0,-11.15,-20.1,ASHRAEClearSky
Environment:WarmupDays,  3
 Warmup Convergence Information,THERMAL ZONE 1,SizingPeriod: MONTREAL INT'L ANN HUM_N 99.6% CONDNS DP=>MCDB,4.4580517900E-006,3.3512217441E-006,Pass,Pass,2.5527087858E-003,5.0318781023E-003,Pass,Pass
 Warmup Convergence Information,THERMAL ZONE 10,SizingPeriod: MONTREAL INT'L ANN HUM_N 99.6% CONDNS DP=>MCDB,8.7155767729E-006,6.6927003097E-006,Pass,Pass,3.3332159358E-003,6.6201496482E-003,Pass,Pass
 Warmup Convergence Information,THERMAL ZONE 11,SizingPeriod: MONTREAL INT'L ANN HUM_N 99.6% CONDNS DP=>MCDB,9.2674702145E-006,7.6343008729E-006,Pass,Pass,3.3510061738E-003,6.5258527508E-003,Pass,Pass
 Warmup Convergence Information,THERMAL ZONE 12,SizingPeriod: MONTREAL INT'L ANN HUM_N 99.6% CONDNS DP=>MCDB,5.9350588109E-006,4.8953178741E-006,Pass,Pass,2.5598071937E-003,4.9615005711E-003,Pass,Pass
 Warmup Convergence Information,THERMAL ZONE 13,SizingPeriod: MONTREAL INT'L ANN HUM_N 99.6% CONDNS DP=>MCDB,5.8122833703E-006,4.8170690493E-006,Pass,Pass,2.6028589261E-003,5.0473779293E-003,Pass,Pass
 Warmup Convergence Information,THERMAL ZONE 14,SizingPeriod: MONTREAL INT'L ANN HUM_N 99.6% CONDNS DP=>MCDB,1.0872543081E-005,9.0462463063E-006,Pass,Pass,3.3368496781E-003,6.5233025520E-003,Pass,Pass
 Warmup Convergence Information,THERMAL ZONE 15,SizingPeriod: MONTREAL INT'L ANN HUM_N 99.6% CONDNS DP=>MCDB,1.1592959409E-005,9.8836816739E-006,Pass,Pass,2.7269106365E-003,5.3606663455E-003,Pass,Pass
 Warmup Convergence Information,THERMAL ZONE 16,SizingPeriod: MONTREAL INT'L ANN HUM_N 99.6% CONDNS DP=>MCDB,2.6959341941E-006,1.8260848685E-006,Pass,Pass,2.5153606245E-004,1.7096596753E-004,Pass,Pass
 Warmup Convergence Information,THERMAL ZONE 17,SizingPeriod: MONTREAL INT'L ANN HUM_N 99.6% CONDNS DP=>MCDB,1.0909411078E-005,9.0415447112E-006,Pass,Pass,3.2850898389E-003,6.4199563778E-003,Pass,Pass
 Warmup Convergence Information,THERMAL ZONE 18,SizingPeriod: MONTREAL INT'L ANN HUM_N 99.6% CONDNS DP=>MCDB,2.6614044950E-006,1.8126602491E-006,Pass,Pass,2.3931525855E-004,1.6289550898E-004,Pass,Pass
 Warmup Convergence Information,THERMAL ZONE 19,SizingPeriod: MONTREAL INT'L ANN HUM_N 99.6% CONDNS DP=>MCDB,9.2355182460E-006,7.5942570673E-006,Pass,Pass,3.1503181281E-003,6.1217195854E-003,Pass,Pass
 Warmup Convergence Information,THERMAL ZONE 2,SizingPeriod: MONTREAL INT'L ANN HUM_N 99.6% CONDNS DP=>MCDB,9.3276493418E-006,7.3257754443E-006,Pass,Pass,2.8124387143E-003,5.6120262402E-003,Pass,Pass
 Warmup Convergence Information,THERMAL ZONE 20,SizingPeriod: MONTREAL INT'L ANN HUM_N 99.6% CONDNS DP=>MCDB,5.7654751764E-006,4.7760385400E-006,Pass,Pass,2.4256337910E-003,4.6922183757E-003,Pass,Pass
 Warmup Convergence Information,THERMAL ZONE 21,SizingPeriod: MONTREAL INT'L ANN HUM_N 99.6% CONDNS DP=>MCDB,1.0842763397E-005,9.0029240266E-006,Pass,Pass,3.1643194031E-003,6.1753369980E-003,Pass,Pass
 Warmup Convergence Information,THERMAL ZONE 22,SizingPeriod: MONTREAL INT'L ANN HUM_N 99.6% CONDNS DP=>MCDB,1.3475064156E-005,1.2909963333E-005,Pass,Pass,1.7321673410E-003,3.3575895603E-003,Pass,Pass
 Warmup Convergence Information,THERMAL ZONE 23,SizingPeriod: MONTREAL INT'L ANN HUM_N 99.6% CONDNS DP=>MCDB,3.4592313268E-006,2.5062421473E-006,Pass,Pass,1.2924163871E-004,9.5227325319E-005,Pass,Pass
 Warmup Convergence Information,THERMAL ZONE 24,SizingPeriod: MONTREAL INT'L ANN HUM_N 99.6% CONDNS DP=>MCDB,7.4220320467E-006,6.7743271341E-006,Pass,Pass,1.2067753999E-003,2.2727106756E-003,Pass,Pass
 Warmup Convergence Information,THERMAL ZONE 25,SizingPeriod: MONTREAL INT'L ANN HUM_N 99.6% CONDNS DP=>MCDB,1.2997147293E-005,1.2032364215E-005,Pass,Pass,1.8363939869E-003,3.5221933211E-003,Pass,Pass
 Warmup Convergence Information,THERMAL ZONE 3,SizingPeriod: MONTREAL INT'L ANN HUM_N 99.6% CONDNS DP=>MCDB,1.1513770818E-005,1.0559411251E-005,Pass,Pass,1.7040751075E-003,3.2406230893E-003,Pass,Pass
 Warmup Convergence Information,THERMAL ZONE 4,SizingPeriod: MONTREAL INT'L ANN HUM_N 99.6% CONDNS DP=>MCDB,1.1528380572E-005,9.8685626600E-006,Pass,Pass,2.7734577367E-003,5.4543129487E-003,Pass,Pass
 Warmup Convergence Information,THERMAL ZONE 5,SizingPeriod: MONTREAL INT'L ANN HUM_N 99.6% CONDNS DP=>MCDB,1.1524262829E-005,9.8240290015E-006,Pass,Pass,2.6468862649E-003,5.1981634948E-003,Pass,Pass
 Warmup Convergence Information,THERMAL ZONE 6,SizingPeriod: MONTREAL INT'L ANN HUM_N 99.6% CONDNS DP=>MCDB,2.1873571787E-006,1.5108653694E-006,Pass,Pass,2.1112039924E-004,1.4558029561E-004,Pass,Pass
 Warmup Convergence Information,THERMAL ZONE 7,SizingPeriod: MONTREAL INT'L ANN HUM_N 99.6% CONDNS DP=>MCDB,9.3612032460E-006,7.6897142717E-006,Pass,Pass,3.2946876876E-003,6.4127005802E-003,Pass,Pass
 Warmup Convergence Information,THERMAL ZONE 8,SizingPeriod: MONTREAL INT'L ANN HUM_N 99.6% CONDNS DP=>MCDB,7.3391740893E-006,5.5458468023E-006,Pass,Pass,3.3260442922E-003,6.5914329685E-003,Pass,Pass
 Warmup Convergence Information,THERMAL ZONE 9,SizingPeriod: MONTREAL INT'L ANN HUM_N 99.6% CONDNS DP=>MCDB,2.6812966384E-006,1.8212854156E-006,Pass,Pass,2.5484922437E-004,1.7370221817E-004,Pass,Pass
Environment,RUN PERIOD 1,WeatherFileRunPeriod,01/01/2006,12/31/2006,Sunday,365,Use RunPeriod Specified Day,No,No,No,Yes,Yes,Clark and Allen
Environment:Daylight Saving,No,RunPeriod Object
Environment:WarmupDays,  4
 Warmup Convergence Information,THERMAL ZONE 1,RunPeriod: RUN PERIOD 1,6.3404252660E-002,0.3119202044,Pass,Pass,0.1717527538,1.1169211395,Pass,Pass
 Warmup Convergence Information,THERMAL ZONE 10,RunPeriod: RUN PERIOD 1,6.3087898762E-002,0.3305819389,Pass,Pass,0.1654648845,1.1312708680,Pass,Pass
 Warmup Convergence Information,THERMAL ZONE 11,RunPeriod: RUN PERIOD 1,9.6635863669E-002,0.2952514444,Pass,Pass,0.2169580682,0.5196877684,Pass,Pass
 Warmup Convergence Information,THERMAL ZONE 12,RunPeriod: RUN PERIOD 1,6.4708323602E-002,0.3085452902,Pass,Pass,0.1687082105,0.9348868657,Pass,Pass
 Warmup Convergence Information,THERMAL ZONE 13,RunPeriod: RUN PERIOD 1,6.4237898155E-002,0.3079845860,Pass,Pass,0.1690743391,0.9548973622,Pass,Pass
 Warmup Convergence Information,THERMAL ZONE 14,RunPeriod: RUN PERIOD 1,6.3271638790E-002,0.3278151150,Pass,Pass,0.1588530090,1.0002266042,Pass,Pass
 Warmup Convergence Information,THERMAL ZONE 15,RunPeriod: RUN PERIOD 1,0.1139997985,0.3340777747,Pass,Pass,0.2766867206,0.5921418849,Pass,Pass
 Warmup Convergence Information,THERMAL ZONE 16,RunPeriod: RUN PERIOD 1,6.3180238190E-002,0.3065427267,Pass,Pass,0.2038261989,1.2980932293,Pass,Pass
 Warmup Convergence Information,THERMAL ZONE 17,RunPeriod: RUN PERIOD 1,6.3316232214E-002,0.3297209305,Pass,Pass,0.1604581802,0.9946419006,Pass,Pass
 Warmup Convergence Information,THERMAL ZONE 18,RunPeriod: RUN PERIOD 1,6.3210356163E-002,0.3105065772,Pass,Pass,0.2024622259,1.3465730420,Pass,Pass
 Warmup Convergence Information,THERMAL ZONE 19,RunPeriod: RUN PERIOD 1,9.2009859223E-002,0.3001934532,Pass,Pass,0.2155605762,0.5668213665,Pass,Pass
 Warmup Convergence Information,THERMAL ZONE 2,RunPeriod: RUN PERIOD 1,6.8312761515E-002,0.3230609780,Pass,Pass,0.1747334811,0.5069330107,Pass,Pass
 Warmup Convergence Information,THERMAL ZONE 20,RunPeriod: RUN PERIOD 1,6.3352054648E-002,0.3129629184,Pass,Pass,0.1784396219,0.9952675237,Pass,Pass
 Warmup Convergence Information,THERMAL ZONE 21,RunPeriod: RUN PERIOD 1,6.3562749040E-002,0.3347628705,Pass,Pass,0.1601455663,1.0228606509,Pass,Pass
 Warmup Convergence Information,THERMAL ZONE 22,RunPeriod: RUN PERIOD 1,6.5554515886E-002,0.3782644185,Pass,Pass,0.1137787303,0.2095634409,Pass,Pass
 Warmup Convergence Information,THERMAL ZONE 23,RunPeriod: RUN PERIOD 1,6.4307196704E-002,0.3792990308,Pass,Pass,6.2718228927E-002,0.2443641104,Pass,Pass
 Warmup Convergence Information,THERMAL ZONE 24,RunPeriod: RUN PERIOD 1,6.4598524462E-002,0.3812645960,Pass,Pass,5.8971481233E-002,0.2007662241,Pass,Pass
 Warmup Convergence Information,THERMAL ZONE 25,RunPeriod: RUN PERIOD 1,6.4548658876E-002,0.3833988936,Pass,Pass,5.0570319021E-002,0.1860818315,Pass,Pass
 Warmup Convergence Information,THERMAL ZONE 3,RunPeriod: RUN PERIOD 1,6.4830847552E-002,0.3739703888,Pass,Pass,7.9773049654E-002,0.2190735117,Pass,Pass
 Warmup Convergence Information,THERMAL ZONE 4,RunPeriod: RUN PERIOD 1,0.1135878630,0.3336039555,Pass,Pass,0.2579864929,0.5779994827,Pass,Pass
 Warmup Convergence Information,THERMAL ZONE 5,RunPeriod: RUN PERIOD 1,0.1070407487,0.3355361798,Pass,Pass,0.2690045147,0.6095117882,Pass,Pass
 Warmup Convergence Information,THERMAL ZONE 6,RunPeriod: RUN PERIOD 1,6.3022493269E-002,0.3123349709,Pass,Pass,0.2079967130,1.4869653849,Pass,Pass
 Warmup Convergence Information,THERMAL ZONE 7,RunPeriod: RUN PERIOD 1,9.7992122260E-002,0.2958292832,Pass,Pass,0.2161204755,0.5042300990,Pass,Pass
 Warmup Convergence Information,THERMAL ZONE 8,RunPeriod: RUN PERIOD 1,6.4644930193E-002,0.2971472285,Pass,Pass,0.1665249110,0.5895911124,Pass,Pass
 Warmup Convergence Information,THERMAL ZONE 9,RunPeriod: RUN PERIOD 1,6.3176279185E-002,0.3064744370,Pass,Pass,0.2036986813,1.3116149871,Pass,Pass
Environment,MONTREAL INT'L ANN CLG .4% CONDNS DB=>MWB HVAC Sizing Pass 1,SizingPeriod:DesignDay,07/21,07/21,SummerDesignDay,1,N/A,N/A,N/A,N/A,N/A,N/A,Clark and Allen
Environment:Daylight Saving,No,SizingPeriod:DesignDay
Environment,MONTREAL INT'L ANN CLG .4% CONDNS DP=>MDB HVAC Sizing Pass 1,SizingPeriod:DesignDay,07/21,07/21,SummerDesignDay,1,N/A,N/A,N/A,N/A,N/A,N/A,Clark and Allen
Environment:Daylight Saving,No,SizingPeriod:DesignDay
Environment,MONTREAL INT'L ANN CLG .4% CONDNS ENTH=>MDB HVAC Sizing Pass 1,SizingPeriod:DesignDay,07/21,07/21,SummerDesignDay,1,N/A,N/A,N/A,N/A,N/A,N/A,Clark and Allen
Environment:Daylight Saving,No,SizingPeriod:DesignDay
Environment,MONTREAL INT'L ANN CLG .4% CONDNS WB=>MDB HVAC Sizing Pass 1,SizingPeriod:DesignDay,07/21,07/21,SummerDesignDay,1,N/A,N/A,N/A,N/A,N/A,N/A,Clark and Allen
Environment:Daylight Saving,No,SizingPeriod:DesignDay
Environment,MONTREAL INT'L ANN CLG 1% CONDNS DB=>MWB HVAC Sizing Pass 1,SizingPeriod:DesignDay,07/21,07/21,SummerDesignDay,1,N/A,N/A,N/A,N/A,N/A,N/A,Clark and Allen
Environment:Daylight Saving,No,SizingPeriod:DesignDay
Environment,MONTREAL INT'L ANN CLG 1% CONDNS DP=>MDB HVAC Sizing Pass 1,SizingPeriod:DesignDay,07/21,07/21,SummerDesignDay,1,N/A,N/A,N/A,N/A,N/A,N/A,Clark and Allen
Environment:Daylight Saving,No,SizingPeriod:DesignDay
Environment,MONTREAL INT'L ANN CLG 1% CONDNS ENTH=>MDB HVAC Sizing Pass 1,SizingPeriod:DesignDay,07/21,07/21,SummerDesignDay,1,N/A,N/A,N/A,N/A,N/A,N/A,Clark and Allen
Environment:Daylight Saving,No,SizingPeriod:DesignDay
Environment,MONTREAL INT'L ANN CLG 1% CONDNS WB=>MDB HVAC Sizing Pass 1,SizingPeriod:DesignDay,07/21,07/21,SummerDesignDay,1,N/A,N/A,N/A,N/A,N/A,N/A,Clark and Allen
Environment:Daylight Saving,No,SizingPeriod:DesignDay
Environment,MONTREAL INT'L ANN CLG 2% CONDNS DB=>MWB HVAC Sizing Pass 1,SizingPeriod:DesignDay,07/21,07/21,SummerDesignDay,1,N/A,N/A,N/A,N/A,N/A,N/A,Clark and Allen
Environment:Daylight Saving,No,SizingPeriod:DesignDay
Environment,MONTREAL INT'L ANN CLG 2% CONDNS DP=>MDB HVAC Sizing Pass 1,SizingPeriod:DesignDay,07/21,07/21,SummerDesignDay,1,N/A,N/A,N/A,N/A,N/A,N/A,Clark and Allen
Environment:Daylight Saving,No,SizingPeriod:DesignDay
Environment,MONTREAL INT'L ANN CLG 2% CONDNS ENTH=>MDB HVAC Sizing Pass 1,SizingPeriod:DesignDay,07/21,07/21,SummerDesignDay,1,N/A,N/A,N/A,N/A,N/A,N/A,Clark and Allen
Environment:Daylight Saving,No,SizingPeriod:DesignDay
Environment,MONTREAL INT'L ANN CLG 2% CONDNS WB=>MDB HVAC Sizing Pass 1,SizingPeriod:DesignDay,07/21,07/21,SummerDesignDay,1,N/A,N/A,N/A,N/A,N/A,N/A,Clark and Allen
Environment:Daylight Saving,No,SizingPeriod:DesignDay
Environment,MONTREAL INT'L ANN HTG 99% CONDNS DB HVAC Sizing Pass 1,SizingPeriod:DesignDay,01/21,01/21,WinterDesignDay,1,N/A,N/A,N/A,N/A,N/A,N/A,Clark and Allen
Environment:Daylight Saving,No,SizingPeriod:DesignDay
Environment,MONTREAL INT'L ANN HTG 99.6% CONDNS DB HVAC Sizing Pass 1,SizingPeriod:DesignDay,01/21,01/21,WinterDesignDay,1,N/A,N/A,N/A,N/A,N/A,N/A,Clark and Allen
Environment:Daylight Saving,No,SizingPeriod:DesignDay
Environment,MONTREAL INT'L ANN HTG WIND 99% CONDNS WS=>MCDB HVAC Sizing Pass 1,SizingPeriod:DesignDay,01/21,01/21,WinterDesignDay,1,N/A,N/A,N/A,N/A,N/A,N/A,Clark and Allen
Environment:Daylight Saving,No,SizingPeriod:DesignDay
Environment,MONTREAL INT'L ANN HTG WIND 99.6% CONDNS WS=>MCDB HVAC Sizing Pass 1,SizingPeriod:DesignDay,01/21,01/21,WinterDesignDay,1,N/A,N/A,N/A,N/A,N/A,N/A,Clark and Allen
Environment:Daylight Saving,No,SizingPeriod:DesignDay
Environment,MONTREAL INT'L ANN HUM_N 99% CONDNS DP=>MCDB HVAC Sizing Pass 1,SizingPeriod:DesignDay,01/21,01/21,WinterDesignDay,1,N/A,N/A,N/A,N/A,N/A,N/A,Clark and Allen
Environment:Daylight Saving,No,SizingPeriod:DesignDay
Environment,MONTREAL INT'L ANN HUM_N 99.6% CONDNS DP=>MCDB HVAC Sizing Pass 1,SizingPeriod:DesignDay,01/21,01/21,WinterDesignDay,1,N/A,N/A,N/A,N/A,N/A,N/A,Clark and Allen
Environment:Daylight Saving,No,SizingPeriod:DesignDay
! <Program Control Information:Threads/Parallel Sims>, Threading Supported,Maximum Number of Threads, Env Set Threads (OMP_NUM_THREADS), EP Env Set Threads (EP_OMP_NUM_THREADS), IDF Set Threads, Number of Threads Used (Interior Radiant Exchange), Number Nominal Surfaces, Number Parallel Sims
Program Control:Threads/Parallel Sims, No,1, N/A, N/A, N/A, N/A, N/A, N/A
End of Data
