{
   "completed_at" : "20251209T043510Z",
   "completed_status" : "Success",
   "created_at" : "20251206T113934Z",
   "current_step" : 8,
   "eplusout_err" : "Program Version,EnergyPlus, Version 25.1.0-1c11a3d85f, YMD=2025.12.08 23:17,\n   ** Warning ** ProcessScheduleInput: Schedule:Day:Interval = FRACTION LATENT DEFAULTDAY - 0.05\n   **   ~~~   ** Schedule Type Limits Name is empty.\n   **   ~~~   ** Schedule will not be validated.\n   ** Warning ** ProcessScheduleInput: Schedule:Day:Interval = FRACTION SENSIBLE DEFAULTDAY - 0.2\n   **   ~~~   ** Schedule Type Limits Name is empty.\n   **   ~~~   ** Schedule will not be validated.\n   ** Warning ** ProcessScheduleInput: Schedule:Day:Interval = SCHEDULE DAY 47\n   **   ~~~   ** Schedule Type Limits Name is empty.\n   **   ~~~   ** Schedule will not be validated.\n   ** Warning ** ProcessScheduleInput: Schedule:Day:Interval = SCHEDULE DAY 48\n   **   ~~~   ** Schedule Type Limits Name is empty.\n   **   ~~~   ** Schedule will not be validated.\n   ** Warning ** ProcessScheduleInput: Schedule:Year = 0.05 HOT WATER LATENT FRACTION\n   **   ~~~   ** Schedule Type Limits Name is empty.\n   **   ~~~   ** Schedule will not be validated.\n   ** Warning ** ProcessScheduleInput: Schedule:Year = 0.2 HOT WATER SENSIBLE FRACTION\n   **   ~~~   ** Schedule Type Limits Name is empty.\n   **   ~~~   ** Schedule will not be validated.\n   ** Warning ** ProcessScheduleInput: Schedule:Year = FRACTION SENSIBLE - 0.05\n   **   ~~~   ** Schedule Type Limits Name is empty.\n   **   ~~~   ** Schedule will not be validated.\n   ** Warning ** ProcessScheduleInput: Schedule:Year = FRACTION SENSIBLE - 0.2\n   **   ~~~   ** Schedule Type Limits Name is empty.\n   **   ~~~   ** Schedule will not be validated.\n   ************* Beginning Zone Sizing Calculations\n   ** Warning ** GetHTSurfaceData: Surfaces with interface to Ground found but no \"Ground Temperatures\" were input.\n   **   ~~~   ** Found first in surface=SURFACE 1\n   **   ~~~   ** Defaults, constant throughout the year of (18.0) will be used.\n   ** Warning ** CheckUsedConstructions: There are 17 nominally unused constructions in input.\n   **   ~~~   ** For explicit details on each unused construction, use Output:Diagnostics,DisplayExtraWarnings;\n   ** Warning ** ZoneHVAC:PackagedTerminalAirConditioner \"CYCLING PTAC DX CLG ELEC HTG\"\n   **   ~~~   ** ...For fan type and name = Fan:OnOff \"CYCLING ELEC PTAC FAN\"\n   **   ~~~   ** ...Fan power ratio function of speed ratio curve has no impact if fan volumetric flow rate is the same as the unitary system volumetric flow rate.\n   **   ~~~   ** ...Fan volumetric flow rate            = 0.25932 m3/s.\n   **   ~~~   ** ...Unitary system volumetric flow rate = 0.25932 m3/s.\n   ** Warning ** ZoneHVAC:PackagedTerminalAirConditioner \"CYCLING PTAC DX CLG ELEC HTG 20\"\n   **   ~~~   ** ...For fan type and name = Fan:OnOff \"CYCLING ELEC PTAC FAN 20\"\n   **   ~~~   ** ...Fan power ratio function of speed ratio curve has no impact if fan volumetric flow rate is the same as the unitary system volumetric flow rate.\n   **   ~~~   ** ...Fan volumetric flow rate            = 0.48808 m3/s.\n   **   ~~~   ** ...Unitary system volumetric flow rate = 0.48808 m3/s.\n   ** Warning ** ZoneHVAC:PackagedTerminalAirConditioner \"CYCLING PTAC DX CLG ELEC HTG 98\"\n   **   ~~~   ** ...For fan type and name = Fan:OnOff \"CYCLING ELEC PTAC FAN 98\"\n   **   ~~~   ** ...Fan power ratio function of speed ratio curve has no impact if fan volumetric flow rate is the same as the unitary system volumetric flow rate.\n   **   ~~~   ** ...Fan volumetric flow rate            = 0.23571 m3/s.\n   **   ~~~   ** ...Unitary system volumetric flow rate = 0.23571 m3/s.\n   ** Warning ** ZoneHVAC:PackagedTerminalAirConditioner \"CYCLING PTAC DX CLG ELEC HTG 85\"\n   **   ~~~   ** ...For fan type and name = Fan:OnOff \"CYCLING ELEC PTAC FAN 85\"\n   **   ~~~   ** ...Fan power ratio function of speed ratio curve has no impact if fan volumetric flow rate is the same as the unitary system volumetric flow rate.\n   **   ~~~   ** ...Fan volumetric flow rate            = 0.25084 m3/s.\n   **   ~~~   ** ...Unitary system volumetric flow rate = 0.25084 m3/s.\n   ** Warning ** ZoneHVAC:PackagedTerminalAirConditioner \"CYCLING PTAC DX CLG ELEC HTG 105\"\n   **   ~~~   ** ...For fan type and name = Fan:OnOff \"CYCLING ELEC PTAC FAN 105\"\n   **   ~~~   ** ...Fan power ratio function of speed ratio curve has no impact if fan volumetric flow rate is the same as the unitary system volumetric flow rate.\n   **   ~~~   ** ...Fan volumetric flow rate            = 0.18769 m3/s.\n   **   ~~~   ** ...Unitary system volumetric flow rate = 0.18769 m3/s.\n   ** Warning ** ZoneHVAC:PackagedTerminalAirConditioner \"CYCLING PTAC DX CLG ELEC HTG 106\"\n   **   ~~~   ** ...For fan type and name = Fan:OnOff \"CYCLING ELEC PTAC FAN 106\"\n   **   ~~~   ** ...Fan power ratio function of speed ratio curve has no impact if fan volumetric flow rate is the same as the unitary system volumetric flow rate.\n   **   ~~~   ** ...Fan volumetric flow rate            = 0.17000 m3/s.\n   **   ~~~   ** ...Unitary system volumetric flow rate = 0.17000 m3/s.\n   ** Warning ** ZoneHVAC:PackagedTerminalAirConditioner \"CYCLING PTAC DX CLG ELEC HTG 77\"\n   **   ~~~   ** ...For fan type and name = Fan:OnOff \"CYCLING ELEC PTAC FAN 77\"\n   **   ~~~   ** ...Fan power ratio function of speed ratio curve has no impact if fan volumetric flow rate is the same as the unitary system volumetric flow rate.\n   **   ~~~   ** ...Fan volumetric flow rate            = 0.18289 m3/s.\n   **   ~~~   ** ...Unitary system volumetric flow rate = 0.18289 m3/s.\n   ** Warning ** ZoneHVAC:PackagedTerminalAirConditioner \"CYCLING PTAC DX CLG ELEC HTG 78\"\n   **   ~~~   ** ...For fan type and name = Fan:OnOff \"CYCLING ELEC PTAC FAN 78\"\n   **   ~~~   ** ...Fan power ratio function of speed ratio curve has no impact if fan volumetric flow rate is the same as the unitary system volumetric flow rate.\n   **   ~~~   ** ...Fan volumetric flow rate            = 0.16738 m3/s.\n   **   ~~~   ** ...Unitary system volumetric flow rate = 0.16738 m3/s.\n   ** Warning ** ZoneHVAC:PackagedTerminalAirConditioner \"CYCLING PTAC DX CLG ELEC HTG 87\"\n   **   ~~~   ** ...For fan type and name = Fan:OnOff \"CYCLING ELEC PTAC FAN 87\"\n   **   ~~~   ** ...Fan power ratio function of speed ratio curve has no impact if fan volumetric flow rate is the same as the unitary system volumetric flow rate.\n   **   ~~~   ** ...Fan volumetric flow rate            = 0.18547 m3/s.\n   **   ~~~   ** ...Unitary system volumetric flow rate = 0.18547 m3/s.\n   ** Warning ** ZoneHVAC:PackagedTerminalAirConditioner \"CYCLING PTAC DX CLG ELEC HTG 88\"\n   **   ~~~   ** ...For fan type and name = Fan:OnOff \"CYCLING ELEC PTAC FAN 88\"\n   **   ~~~   ** ...Fan power ratio function of speed ratio curve has no impact if fan volumetric flow rate is the same as the unitary system volumetric flow rate.\n   **   ~~~   ** ...Fan volumetric flow rate            = 0.16912 m3/s.\n   **   ~~~   ** ...Unitary system volumetric flow rate = 0.16912 m3/s.\n   ** Warning ** ZoneHVAC:PackagedTerminalAirConditioner \"CYCLING PTAC DX CLG ELEC HTG 111\"\n   **   ~~~   ** ...For fan type and name = Fan:OnOff \"CYCLING ELEC PTAC FAN 111\"\n   **   ~~~   ** ...Fan power ratio function of speed ratio curve has no impact if fan volumetric flow rate is the same as the unitary system volumetric flow rate.\n   **   ~~~   ** ...Fan volumetric flow rate            = 0.24664 m3/s.\n   **   ~~~   ** ...Unitary system volumetric flow rate = 0.24664 m3/s.\n   ** Warning ** ZoneHVAC:PackagedTerminalAirConditioner \"CYCLING PTAC DX CLG ELEC HTG 107\"\n   **   ~~~   ** ...For fan type and name = Fan:OnOff \"CYCLING ELEC PTAC FAN 107\"\n   **   ~~~   ** ...Fan power ratio function of speed ratio curve has no impact if fan volumetric flow rate is the same as the unitary system volumetric flow rate.\n   **   ~~~   ** ...Fan volumetric flow rate            = 0.18346 m3/s.\n   **   ~~~   ** ...Unitary system volumetric flow rate = 0.18346 m3/s.\n   ** Warning ** ZoneHVAC:PackagedTerminalAirConditioner \"CYCLING PTAC DX CLG ELEC HTG 27\"\n   **   ~~~   ** ...For fan type and name = Fan:OnOff \"CYCLING ELEC PTAC FAN 27\"\n   **   ~~~   ** ...Fan power ratio function of speed ratio curve has no impact if fan volumetric flow rate is the same as the unitary system volumetric flow rate.\n   **   ~~~   ** ...Fan volumetric flow rate            = 7.67311E-002 m3/s.\n   **   ~~~   ** ...Unitary system volumetric flow rate = 7.67311E-002 m3/s.\n   ** Warning ** ZoneHVAC:PackagedTerminalAirConditioner \"CYCLING PTAC DX CLG ELEC HTG 112\"\n   **   ~~~   ** ...For fan type and name = Fan:OnOff \"CYCLING ELEC PTAC FAN 112\"\n   **   ~~~   ** ...Fan power ratio function of speed ratio curve has no impact if fan volumetric flow rate is the same as the unitary system volumetric flow rate.\n   **   ~~~   ** ...Fan volumetric flow rate            = 0.24544 m3/s.\n   **   ~~~   ** ...Unitary system volumetric flow rate = 0.24544 m3/s.\n   ** Warning ** ZoneHVAC:PackagedTerminalAirConditioner \"CYCLING PTAC DX CLG ELEC HTG 108\"\n   **   ~~~   ** ...For fan type and name = Fan:OnOff \"CYCLING ELEC PTAC FAN 108\"\n   **   ~~~   ** ...Fan power ratio function of speed ratio curve has no impact if fan volumetric flow rate is the same as the unitary system volumetric flow rate.\n   **   ~~~   ** ...Fan volumetric flow rate            = 0.18529 m3/s.\n   **   ~~~   ** ...Unitary system volumetric flow rate = 0.18529 m3/s.\n   ** Warning ** ZoneHVAC:PackagedTerminalAirConditioner \"CYCLING PTAC DX CLG ELEC HTG 109\"\n   **   ~~~   ** ...For fan type and name = Fan:OnOff \"CYCLING ELEC PTAC FAN 109\"\n   **   ~~~   ** ...Fan power ratio function of speed ratio curve has no impact if fan volumetric flow rate is the same as the unitary system volumetric flow rate.\n   **   ~~~   ** ...Fan volumetric flow rate            = 0.25729 m3/s.\n   **   ~~~   ** ...Unitary system volumetric flow rate = 0.25729 m3/s.\n   ** Warning ** ZoneHVAC:PackagedTerminalAirConditioner \"CYCLING PTAC DX CLG ELEC HTG 110\"\n   **   ~~~   ** ...For fan type and name = Fan:OnOff \"CYCLING ELEC PTAC FAN 110\"\n   **   ~~~   ** ...Fan power ratio function of speed ratio curve has no impact if fan volumetric flow rate is the same as the unitary system volumetric flow rate.\n   **   ~~~   ** ...Fan volumetric flow rate            = 7.66501E-002 m3/s.\n   **   ~~~   ** ...Unitary system volumetric flow rate = 7.66501E-002 m3/s.\n   ** Warning ** ZoneHVAC:PackagedTerminalAirConditioner \"CYCLING PTAC DX CLG ELEC HTG 135\"\n   **   ~~~   ** ...For fan type and name = Fan:OnOff \"CYCLING ELEC PTAC FAN 135\"\n   **   ~~~   ** ...Fan power ratio function of speed ratio curve has no impact if fan volumetric flow rate is the same as the unitary system volumetric flow rate.\n   **   ~~~   ** ...Fan volumetric flow rate            = 0.25608 m3/s.\n   **   ~~~   ** ...Unitary system volumetric flow rate = 0.25608 m3/s.\n   ** Warning ** ZoneHVAC:PackagedTerminalAirConditioner \"CYCLING PTAC DX CLG ELEC HTG 123\"\n   **   ~~~   ** ...For fan type and name = Fan:OnOff \"CYCLING ELEC PTAC FAN 123\"\n   **   ~~~   ** ...Fan power ratio function of speed ratio curve has no impact if fan volumetric flow rate is the same as the unitary system volumetric flow rate.\n   **   ~~~   ** ...Fan volumetric flow rate            = 0.18759 m3/s.\n   **   ~~~   ** ...Unitary system volumetric flow rate = 0.18759 m3/s.\n   ** Warning ** ZoneHVAC:PackagedTerminalAirConditioner \"CYCLING PTAC DX CLG ELEC HTG 129\"\n   **   ~~~   ** ...For fan type and name = Fan:OnOff \"CYCLING ELEC PTAC FAN 129\"\n   **   ~~~   ** ...Fan power ratio function of speed ratio curve has no impact if fan volumetric flow rate is the same as the unitary system volumetric flow rate.\n   **   ~~~   ** ...Fan volumetric flow rate            = 0.66168 m3/s.\n   **   ~~~   ** ...Unitary system volumetric flow rate = 0.66168 m3/s.\n   ** Warning ** ZoneHVAC:PackagedTerminalAirConditioner \"CYCLING PTAC DX CLG ELEC HTG 118\"\n   **   ~~~   ** ...For fan type and name = Fan:OnOff \"CYCLING ELEC PTAC FAN 118\"\n   **   ~~~   ** ...Fan power ratio function of speed ratio curve has no impact if fan volumetric flow rate is the same as the unitary system volumetric flow rate.\n   **   ~~~   ** ...Fan volumetric flow rate            = 0.16981 m3/s.\n   **   ~~~   ** ...Unitary system volumetric flow rate = 0.16981 m3/s.\n   ** Warning ** ZoneHVAC:PackagedTerminalAirConditioner \"CYCLING PTAC DX CLG ELEC HTG 144\"\n   **   ~~~   ** ...For fan type and name = Fan:OnOff \"CYCLING ELEC PTAC FAN 144\"\n   **   ~~~   ** ...Fan power ratio function of speed ratio curve has no impact if fan volumetric flow rate is the same as the unitary system volumetric flow rate.\n   **   ~~~   ** ...Fan volumetric flow rate            = 0.16719 m3/s.\n   **   ~~~   ** ...Unitary system volumetric flow rate = 0.16719 m3/s.\n   ** Warning ** ZoneHVAC:PackagedTerminalAirConditioner \"CYCLING PTAC DX CLG ELEC HTG 114\"\n   **   ~~~   ** ...For fan type and name = Fan:OnOff \"CYCLING ELEC PTAC FAN 114\"\n   **   ~~~   ** ...Fan power ratio function of speed ratio curve has no impact if fan volumetric flow rate is the same as the unitary system volumetric flow rate.\n   **   ~~~   ** ...Fan volumetric flow rate            = 0.18538 m3/s.\n   **   ~~~   ** ...Unitary system volumetric flow rate = 0.18538 m3/s.\n   ** Warning ** ZoneHVAC:PackagedTerminalAirConditioner \"CYCLING PTAC DX CLG ELEC HTG 2\"\n   **   ~~~   ** ...For fan type and name = Fan:OnOff \"CYCLING ELEC PTAC FAN 2\"\n   **   ~~~   ** ...Fan power ratio function of speed ratio curve has no impact if fan volumetric flow rate is the same as the unitary system volumetric flow rate.\n   **   ~~~   ** ...Fan volumetric flow rate            = 0.19173 m3/s.\n   **   ~~~   ** ...Unitary system volumetric flow rate = 0.19173 m3/s.\n   ** Warning ** ZoneHVAC:PackagedTerminalAirConditioner \"CYCLING PTAC DX CLG ELEC HTG 121\"\n   **   ~~~   ** ...For fan type and name = Fan:OnOff \"CYCLING ELEC PTAC FAN 121\"\n   **   ~~~   ** ...Fan power ratio function of speed ratio curve has no impact if fan volumetric flow rate is the same as the unitary system volumetric flow rate.\n   **   ~~~   ** ...Fan volumetric flow rate            = 0.16894 m3/s.\n   **   ~~~   ** ...Unitary system volumetric flow rate = 0.16894 m3/s.\n   ** Warning ** ZoneHVAC:PackagedTerminalAirConditioner \"CYCLING PTAC DX CLG ELEC HTG 132\"\n   **   ~~~   ** ...For fan type and name = Fan:OnOff \"CYCLING ELEC PTAC FAN 132\"\n   **   ~~~   ** ...Fan power ratio function of speed ratio curve has no impact if fan volumetric flow rate is the same as the unitary system volumetric flow rate.\n   **   ~~~   ** ...Fan volumetric flow rate            = 0.25578 m3/s.\n   **   ~~~   ** ...Unitary system volumetric flow rate = 0.25578 m3/s.\n   ** Warning ** ZoneHVAC:PackagedTerminalAirConditioner \"CYCLING PTAC DX CLG ELEC HTG 136\"\n   **   ~~~   ** ...For fan type and name = Fan:OnOff \"CYCLING ELEC PTAC FAN 136\"\n   **   ~~~   ** ...Fan power ratio function of speed ratio curve has no impact if fan volumetric flow rate is the same as the unitary system volumetric flow rate.\n   **   ~~~   ** ...Fan volumetric flow rate            = 0.25458 m3/s.\n   **   ~~~   ** ...Unitary system volumetric flow rate = 0.25458 m3/s.\n   ** Warning ** ZoneHVAC:PackagedTerminalAirConditioner \"CYCLING PTAC DX CLG ELEC HTG 125\"\n   **   ~~~   ** ...For fan type and name = Fan:OnOff \"CYCLING ELEC PTAC FAN 125\"\n   **   ~~~   ** ...Fan power ratio function of speed ratio curve has no impact if fan volumetric flow rate is the same as the unitary system volumetric flow rate.\n   **   ~~~   ** ...Fan volumetric flow rate            = 0.26597 m3/s.\n   **   ~~~   ** ...Unitary system volumetric flow rate = 0.26597 m3/s.\n   ** Warning ** ZoneHVAC:PackagedTerminalAirConditioner \"CYCLING PTAC DX CLG ELEC HTG 120\"\n   **   ~~~   ** ...For fan type and name = Fan:OnOff \"CYCLING ELEC PTAC FAN 120\"\n   **   ~~~   ** ...Fan power ratio function of speed ratio curve has no impact if fan volumetric flow rate is the same as the unitary system volumetric flow rate.\n   **   ~~~   ** ...Fan volumetric flow rate            = 7.66323E-002 m3/s.\n   **   ~~~   ** ...Unitary system volumetric flow rate = 7.66323E-002 m3/s.\n   ** Warning ** ZoneHVAC:PackagedTerminalAirConditioner \"CYCLING PTAC DX CLG ELEC HTG 119\"\n   **   ~~~   ** ...For fan type and name = Fan:OnOff \"CYCLING ELEC PTAC FAN 119\"\n   **   ~~~   ** ...Fan power ratio function of speed ratio curve has no impact if fan volumetric flow rate is the same as the unitary system volumetric flow rate.\n   **   ~~~   ** ...Fan volumetric flow rate            = 0.18750 m3/s.\n   **   ~~~   ** ...Unitary system volumetric flow rate = 0.18750 m3/s.\n   ** Warning ** ZoneHVAC:PackagedTerminalAirConditioner \"CYCLING PTAC DX CLG ELEC HTG 131\"\n   **   ~~~   ** ...For fan type and name = Fan:OnOff \"CYCLING ELEC PTAC FAN 131\"\n   **   ~~~   ** ...Fan power ratio function of speed ratio curve has no impact if fan volumetric flow rate is the same as the unitary system volumetric flow rate.\n   **   ~~~   ** ...Fan volumetric flow rate            = 0.48686 m3/s.\n   **   ~~~   ** ...Unitary system volumetric flow rate = 0.48686 m3/s.\n   ** Warning ** ZoneHVAC:PackagedTerminalAirConditioner \"CYCLING PTAC DX CLG ELEC HTG 137\"\n   **   ~~~   ** ...For fan type and name = Fan:OnOff \"CYCLING ELEC PTAC FAN 137\"\n   **   ~~~   ** ...Fan power ratio function of speed ratio curve has no impact if fan volumetric flow rate is the same as the unitary system volumetric flow rate.\n   **   ~~~   ** ...Fan volumetric flow rate            = 0.16965 m3/s.\n   **   ~~~   ** ...Unitary system volumetric flow rate = 0.16965 m3/s.\n   ** Warning ** ZoneHVAC:PackagedTerminalAirConditioner \"CYCLING PTAC DX CLG ELEC HTG 116\"\n   **   ~~~   ** ...For fan type and name = Fan:OnOff \"CYCLING ELEC PTAC FAN 116\"\n   **   ~~~   ** ...Fan power ratio function of speed ratio curve has no impact if fan volumetric flow rate is the same as the unitary system volumetric flow rate.\n   **   ~~~   ** ...Fan volumetric flow rate            = 0.18271 m3/s.\n   **   ~~~   ** ...Unitary system volumetric flow rate = 0.18271 m3/s.\n   ** Warning ** ZoneHVAC:PackagedTerminalAirConditioner \"CYCLING PTAC DX CLG ELEC HTG 113\"\n   **   ~~~   ** ...For fan type and name = Fan:OnOff \"CYCLING ELEC PTAC FAN 113\"\n   **   ~~~   ** ...Fan power ratio function of speed ratio curve has no impact if fan volumetric flow rate is the same as the unitary system volumetric flow rate.\n   **   ~~~   ** ...Fan volumetric flow rate            = 0.16703 m3/s.\n   **   ~~~   ** ...Unitary system volumetric flow rate = 0.16703 m3/s.\n   ** Warning ** ZoneHVAC:PackagedTerminalAirConditioner \"CYCLING PTAC DX CLG ELEC HTG 3\"\n   **   ~~~   ** ...For fan type and name = Fan:OnOff \"CYCLING ELEC PTAC FAN 3\"\n   **   ~~~   ** ...Fan power ratio function of speed ratio curve has no impact if fan volumetric flow rate is the same as the unitary system volumetric flow rate.\n   **   ~~~   ** ...Fan volumetric flow rate            = 0.17003 m3/s.\n   **   ~~~   ** ...Unitary system volumetric flow rate = 0.17003 m3/s.\n   ** Warning ** ZoneHVAC:PackagedTerminalAirConditioner \"CYCLING PTAC DX CLG ELEC HTG 134\"\n   **   ~~~   ** ...For fan type and name = Fan:OnOff \"CYCLING ELEC PTAC FAN 134\"\n   **   ~~~   ** ...Fan power ratio function of speed ratio curve has no impact if fan volumetric flow rate is the same as the unitary system volumetric flow rate.\n   **   ~~~   ** ...Fan volumetric flow rate            = 0.16878 m3/s.\n   **   ~~~   ** ...Unitary system volumetric flow rate = 0.16878 m3/s.\n   ** Warning ** ZoneHVAC:PackagedTerminalAirConditioner \"CYCLING PTAC DX CLG ELEC HTG 130\"\n   **   ~~~   ** ...For fan type and name = Fan:OnOff \"CYCLING ELEC PTAC FAN 130\"\n   **   ~~~   ** ...Fan power ratio function of speed ratio curve has no impact if fan volumetric flow rate is the same as the unitary system volumetric flow rate.\n   **   ~~~   ** ...Fan volumetric flow rate            = 0.26445 m3/s.\n   **   ~~~   ** ...Unitary system volumetric flow rate = 0.26445 m3/s.\n   ** Warning ** ZoneHVAC:PackagedTerminalAirConditioner \"CYCLING PTAC DX CLG ELEC HTG 133\"\n   **   ~~~   ** ...For fan type and name = Fan:OnOff \"CYCLING ELEC PTAC FAN 133\"\n   **   ~~~   ** ...Fan power ratio function of speed ratio curve has no impact if fan volumetric flow rate is the same as the unitary system volumetric flow rate.\n   **   ~~~   ** ...Fan volumetric flow rate            = 0.26324 m3/s.\n   **   ~~~   ** ...Unitary system volumetric flow rate = 0.26324 m3/s.\n   ** Warning ** ZoneHVAC:PackagedTerminalAirConditioner \"CYCLING PTAC DX CLG ELEC HTG 138\"\n   **   ~~~   ** ...For fan type and name = Fan:OnOff \"CYCLING ELEC PTAC FAN 138\"\n   **   ~~~   ** ...Fan power ratio function of speed ratio curve has no impact if fan volumetric flow rate is the same as the unitary system volumetric flow rate.\n   **   ~~~   ** ...Fan volumetric flow rate            = 7.72040E-002 m3/s.\n   **   ~~~   ** ...Unitary system volumetric flow rate = 7.72040E-002 m3/s.\n   ** Warning ** ZoneHVAC:PackagedTerminalAirConditioner \"CYCLING PTAC DX CLG ELEC HTG 139\"\n   **   ~~~   ** ...For fan type and name = Fan:OnOff \"CYCLING ELEC PTAC FAN 139\"\n   **   ~~~   ** ...Fan power ratio function of speed ratio curve has no impact if fan volumetric flow rate is the same as the unitary system volumetric flow rate.\n   **   ~~~   ** ...Fan volumetric flow rate            = 0.27329 m3/s.\n   **   ~~~   ** ...Unitary system volumetric flow rate = 0.27329 m3/s.\n   ** Warning ** ZoneHVAC:PackagedTerminalAirConditioner \"CYCLING PTAC DX CLG ELEC HTG 115\"\n   **   ~~~   ** ...For fan type and name = Fan:OnOff \"CYCLING ELEC PTAC FAN 115\"\n   **   ~~~   ** ...Fan power ratio function of speed ratio curve has no impact if fan volumetric flow rate is the same as the unitary system volumetric flow rate.\n   **   ~~~   ** ...Fan volumetric flow rate            = 0.18741 m3/s.\n   **   ~~~   ** ...Unitary system volumetric flow rate = 0.18741 m3/s.\n   ** Warning ** ZoneHVAC:PackagedTerminalAirConditioner \"CYCLING PTAC DX CLG ELEC HTG 140\"\n   **   ~~~   ** ...For fan type and name = Fan:OnOff \"CYCLING ELEC PTAC FAN 140\"\n   **   ~~~   ** ...Fan power ratio function of speed ratio curve has no impact if fan volumetric flow rate is the same as the unitary system volumetric flow rate.\n   **   ~~~   ** ...Fan volumetric flow rate            = 0.16950 m3/s.\n   **   ~~~   ** ...Unitary system volumetric flow rate = 0.16950 m3/s.\n   ** Warning ** ZoneHVAC:PackagedTerminalAirConditioner \"CYCLING PTAC DX CLG ELEC HTG 141\"\n   **   ~~~   ** ...For fan type and name = Fan:OnOff \"CYCLING ELEC PTAC FAN 141\"\n   **   ~~~   ** ...Fan power ratio function of speed ratio curve has no impact if fan volumetric flow rate is the same as the unitary system volumetric flow rate.\n   **   ~~~   ** ...Fan volumetric flow rate            = 0.18263 m3/s.\n   **   ~~~   ** ...Unitary system volumetric flow rate = 0.18263 m3/s.\n   ** Warning ** ZoneHVAC:PackagedTerminalAirConditioner \"CYCLING PTAC DX CLG ELEC HTG 122\"\n   **   ~~~   ** ...For fan type and name = Fan:OnOff \"CYCLING ELEC PTAC FAN 122\"\n   **   ~~~   ** ...Fan power ratio function of speed ratio curve has no impact if fan volumetric flow rate is the same as the unitary system volumetric flow rate.\n   **   ~~~   ** ...Fan volumetric flow rate            = 0.18520 m3/s.\n   **   ~~~   ** ...Unitary system volumetric flow rate = 0.18520 m3/s.\n   ** Warning ** ZoneHVAC:PackagedTerminalAirConditioner \"CYCLING PTAC DX CLG ELEC HTG 117\"\n   **   ~~~   ** ...For fan type and name = Fan:OnOff \"CYCLING ELEC PTAC FAN 117\"\n   **   ~~~   ** ...Fan power ratio function of speed ratio curve has no impact if fan volumetric flow rate is the same as the unitary system volumetric flow rate.\n   **   ~~~   ** ...Fan volumetric flow rate            = 0.16865 m3/s.\n   **   ~~~   ** ...Unitary system volumetric flow rate = 0.16865 m3/s.\n   ** Warning ** ZoneHVAC:PackagedTerminalAirConditioner \"CYCLING PTAC DX CLG ELEC HTG 25\"\n   **   ~~~   ** ...For fan type and name = Fan:OnOff \"CYCLING ELEC PTAC FAN 25\"\n   **   ~~~   ** ...Fan power ratio function of speed ratio curve has no impact if fan volumetric flow rate is the same as the unitary system volumetric flow rate.\n   **   ~~~   ** ...Fan volumetric flow rate            = 0.17784 m3/s.\n   **   ~~~   ** ...Unitary system volumetric flow rate = 0.17784 m3/s.\n   ** Warning ** ZoneHVAC:PackagedTerminalAirConditioner \"CYCLING PTAC DX CLG ELEC HTG 126\"\n   **   ~~~   ** ...For fan type and name = Fan:OnOff \"CYCLING ELEC PTAC FAN 126\"\n   **   ~~~   ** ...Fan power ratio function of speed ratio curve has no impact if fan volumetric flow rate is the same as the unitary system volumetric flow rate.\n   **   ~~~   ** ...Fan volumetric flow rate            = 0.27299 m3/s.\n   **   ~~~   ** ...Unitary system volumetric flow rate = 0.27299 m3/s.\n   ** Warning ** ZoneHVAC:PackagedTerminalAirConditioner \"CYCLING PTAC DX CLG ELEC HTG 142\"\n   **   ~~~   ** ...For fan type and name = Fan:OnOff \"CYCLING ELEC PTAC FAN 142\"\n   **   ~~~   ** ...Fan power ratio function of speed ratio curve has no impact if fan volumetric flow rate is the same as the unitary system volumetric flow rate.\n   **   ~~~   ** ...Fan volumetric flow rate            = 0.28524 m3/s.\n   **   ~~~   ** ...Unitary system volumetric flow rate = 0.28524 m3/s.\n   ** Warning ** ZoneHVAC:PackagedTerminalAirConditioner \"CYCLING PTAC DX CLG ELEC HTG 143\"\n   **   ~~~   ** ...For fan type and name = Fan:OnOff \"CYCLING ELEC PTAC FAN 143\"\n   **   ~~~   ** ...Fan power ratio function of speed ratio curve has no impact if fan volumetric flow rate is the same as the unitary system volumetric flow rate.\n   **   ~~~   ** ...Fan volumetric flow rate            = 8.17889E-002 m3/s.\n   **   ~~~   ** ...Unitary system volumetric flow rate = 8.17889E-002 m3/s.\n   ** Warning ** ZoneHVAC:PackagedTerminalAirConditioner \"CYCLING PTAC DX CLG ELEC HTG 124\"\n   **   ~~~   ** ...For fan type and name = Fan:OnOff \"CYCLING ELEC PTAC FAN 124\"\n   **   ~~~   ** ...Fan power ratio function of speed ratio curve has no impact if fan volumetric flow rate is the same as the unitary system volumetric flow rate.\n   **   ~~~   ** ...Fan volumetric flow rate            = 0.28404 m3/s.\n   **   ~~~   ** ...Unitary system volumetric flow rate = 0.28404 m3/s.\n   ** Warning ** ZoneHVAC:PackagedTerminalAirConditioner \"CYCLING PTAC DX CLG ELEC HTG 127\"\n   **   ~~~   ** ...For fan type and name = Fan:OnOff \"CYCLING ELEC PTAC FAN 127\"\n   **   ~~~   ** ...Fan power ratio function of speed ratio curve has no impact if fan volumetric flow rate is the same as the unitary system volumetric flow rate.\n   **   ~~~   ** ...Fan volumetric flow rate            = 0.18828 m3/s.\n   **   ~~~   ** ...Unitary system volumetric flow rate = 0.18828 m3/s.\n   ** Warning ** ZoneHVAC:PackagedTerminalAirConditioner \"CYCLING PTAC DX CLG ELEC HTG 128\"\n   **   ~~~   ** ...For fan type and name = Fan:OnOff \"CYCLING ELEC PTAC FAN 128\"\n   **   ~~~   ** ...Fan power ratio function of speed ratio curve has no impact if fan volumetric flow rate is the same as the unitary system volumetric flow rate.\n   **   ~~~   ** ...Fan volumetric flow rate            = 0.16904 m3/s.\n   **   ~~~   ** ...Unitary system volumetric flow rate = 0.16904 m3/s.\n   ** Warning ** ZoneHVAC:PackagedTerminalAirConditioner \"CYCLING PTAC DX CLG ELEC HTG 146\"\n   **   ~~~   ** ...For fan type and name = Fan:OnOff \"CYCLING ELEC PTAC FAN 146\"\n   **   ~~~   ** ...Fan power ratio function of speed ratio curve has no impact if fan volumetric flow rate is the same as the unitary system volumetric flow rate.\n   **   ~~~   ** ...Fan volumetric flow rate            = 0.28373 m3/s.\n   **   ~~~   ** ...Unitary system volumetric flow rate = 0.28373 m3/s.\n   ** Warning ** ZoneHVAC:PackagedTerminalAirConditioner \"CYCLING PTAC DX CLG ELEC HTG 145\"\n   **   ~~~   ** ...For fan type and name = Fan:OnOff \"CYCLING ELEC PTAC FAN 145\"\n   **   ~~~   ** ...Fan power ratio function of speed ratio curve has no impact if fan volumetric flow rate is the same as the unitary system volumetric flow rate.\n   **   ~~~   ** ...Fan volumetric flow rate            = 0.28252 m3/s.\n   **   ~~~   ** ...Unitary system volumetric flow rate = 0.28252 m3/s.\n   ** Warning ** ZoneHVAC:PackagedTerminalAirConditioner \"CYCLING PTAC DX CLG ELEC HTG 147\"\n   **   ~~~   ** ...For fan type and name = Fan:OnOff \"CYCLING ELEC PTAC FAN 147\"\n   **   ~~~   ** ...Fan power ratio function of speed ratio curve has no impact if fan volumetric flow rate is the same as the unitary system volumetric flow rate.\n   **   ~~~   ** ...Fan volumetric flow rate            = 0.66286 m3/s.\n   **   ~~~   ** ...Unitary system volumetric flow rate = 0.66286 m3/s.\n   ** Warning ** ZoneHVAC:PackagedTerminalAirConditioner \"CYCLING PTAC DX CLG ELEC HTG 148\"\n   **   ~~~   ** ...For fan type and name = Fan:OnOff \"CYCLING ELEC PTAC FAN 148\"\n   **   ~~~   ** ...Fan power ratio function of speed ratio curve has no impact if fan volumetric flow rate is the same as the unitary system volumetric flow rate.\n   **   ~~~   ** ...Fan volumetric flow rate            = 0.43761 m3/s.\n   **   ~~~   ** ...Unitary system volumetric flow rate = 0.43761 m3/s.\n   ** Warning ** ZoneHVAC:PackagedTerminalAirConditioner \"CYCLING PTAC DX CLG ELEC HTG 28\"\n   **   ~~~   ** ...For fan type and name = Fan:OnOff \"CYCLING ELEC PTAC FAN 28\"\n   **   ~~~   ** ...Fan power ratio function of speed ratio curve has no impact if fan volumetric flow rate is the same as the unitary system volumetric flow rate.\n   **   ~~~   ** ...Fan volumetric flow rate            = 0.16861 m3/s.\n   **   ~~~   ** ...Unitary system volumetric flow rate = 0.16861 m3/s.\n   ** Warning ** ZoneHVAC:PackagedTerminalAirConditioner \"CYCLING PTAC DX CLG ELEC HTG 149\"\n   **   ~~~   ** ...For fan type and name = Fan:OnOff \"CYCLING ELEC PTAC FAN 149\"\n   **   ~~~   ** ...Fan power ratio function of speed ratio curve has no impact if fan volumetric flow rate is the same as the unitary system volumetric flow rate.\n   **   ~~~   ** ...Fan volumetric flow rate            = 0.48617 m3/s.\n   **   ~~~   ** ...Unitary system volumetric flow rate = 0.48617 m3/s.\n   ** Warning ** ZoneHVAC:PackagedTerminalAirConditioner \"CYCLING PTAC DX CLG ELEC HTG 151\"\n   **   ~~~   ** ...For fan type and name = Fan:OnOff \"CYCLING ELEC PTAC FAN 151\"\n   **   ~~~   ** ...Fan power ratio function of speed ratio curve has no impact if fan volumetric flow rate is the same as the unitary system volumetric flow rate.\n   **   ~~~   ** ...Fan volumetric flow rate            = 0.48495 m3/s.\n   **   ~~~   ** ...Unitary system volumetric flow rate = 0.48495 m3/s.\n   ** Warning ** ZoneHVAC:PackagedTerminalAirConditioner \"CYCLING PTAC DX CLG ELEC HTG 153\"\n   **   ~~~   ** ...For fan type and name = Fan:OnOff \"CYCLING ELEC PTAC FAN 153\"\n   **   ~~~   ** ...Fan power ratio function of speed ratio curve has no impact if fan volumetric flow rate is the same as the unitary system volumetric flow rate.\n   **   ~~~   ** ...Fan volumetric flow rate            = 0.48681 m3/s.\n   **   ~~~   ** ...Unitary system volumetric flow rate = 0.48681 m3/s.\n   ** Warning ** ZoneHVAC:PackagedTerminalAirConditioner \"CYCLING PTAC DX CLG ELEC HTG 150\"\n   **   ~~~   ** ...For fan type and name = Fan:OnOff \"CYCLING ELEC PTAC FAN 150\"\n   **   ~~~   ** ...Fan power ratio function of speed ratio curve has no impact if fan volumetric flow rate is the same as the unitary system volumetric flow rate.\n   **   ~~~   ** ...Fan volumetric flow rate            = 0.66137 m3/s.\n   **   ~~~   ** ...Unitary system volumetric flow rate = 0.66137 m3/s.\n   ** Warning ** ZoneHVAC:PackagedTerminalAirConditioner \"CYCLING PTAC DX CLG ELEC HTG 152\"\n   **   ~~~   ** ...For fan type and name = Fan:OnOff \"CYCLING ELEC PTAC FAN 152\"\n   **   ~~~   ** ...Fan power ratio function of speed ratio curve has no impact if fan volumetric flow rate is the same as the unitary system volumetric flow rate.\n   **   ~~~   ** ...Fan volumetric flow rate            = 0.66019 m3/s.\n   **   ~~~   ** ...Unitary system volumetric flow rate = 0.66019 m3/s.\n   ** Warning ** ZoneHVAC:PackagedTerminalAirConditioner \"CYCLING PTAC DX CLG ELEC HTG 10\"\n   **   ~~~   ** ...For fan type and name = Fan:OnOff \"CYCLING ELEC PTAC FAN 10\"\n   **   ~~~   ** ...Fan power ratio function of speed ratio curve has no impact if fan volumetric flow rate is the same as the unitary system volumetric flow rate.\n   **   ~~~   ** ...Fan volumetric flow rate            = 0.19429 m3/s.\n   **   ~~~   ** ...Unitary system volumetric flow rate = 0.19429 m3/s.\n   ** Warning ** ZoneHVAC:PackagedTerminalAirConditioner \"CYCLING PTAC DX CLG ELEC HTG 6\"\n   **   ~~~   ** ...For fan type and name = Fan:OnOff \"CYCLING ELEC PTAC FAN 6\"\n   **   ~~~   ** ...Fan power ratio function of speed ratio curve has no impact if fan volumetric flow rate is the same as the unitary system volumetric flow rate.\n   **   ~~~   ** ...Fan volumetric flow rate            = 0.18726 m3/s.\n   **   ~~~   ** ...Unitary system volumetric flow rate = 0.18726 m3/s.\n   ** Warning ** ZoneHVAC:PackagedTerminalAirConditioner \"CYCLING PTAC DX CLG ELEC HTG 24\"\n   **   ~~~   ** ...For fan type and name = Fan:OnOff \"CYCLING ELEC PTAC FAN 24\"\n   **   ~~~   ** ...Fan power ratio function of speed ratio curve has no impact if fan volumetric flow rate is the same as the unitary system volumetric flow rate.\n   **   ~~~   ** ...Fan volumetric flow rate            = 0.17959 m3/s.\n   **   ~~~   ** ...Unitary system volumetric flow rate = 0.17959 m3/s.\n   ** Warning ** ZoneHVAC:PackagedTerminalAirConditioner \"CYCLING PTAC DX CLG ELEC HTG 11\"\n   **   ~~~   ** ...For fan type and name = Fan:OnOff \"CYCLING ELEC PTAC FAN 11\"\n   **   ~~~   ** ...Fan power ratio function of speed ratio curve has no impact if fan volumetric flow rate is the same as the unitary system volumetric flow rate.\n   **   ~~~   ** ...Fan volumetric flow rate            = 0.27177 m3/s.\n   **   ~~~   ** ...Unitary system volumetric flow rate = 0.27177 m3/s.\n   ** Warning ** ZoneHVAC:PackagedTerminalAirConditioner \"CYCLING PTAC DX CLG ELEC HTG 9\"\n   **   ~~~   ** ...For fan type and name = Fan:OnOff \"CYCLING ELEC PTAC FAN 9\"\n   **   ~~~   ** ...Fan power ratio function of speed ratio curve has no impact if fan volumetric flow rate is the same as the unitary system volumetric flow rate.\n   **   ~~~   ** ...Fan volumetric flow rate            = 0.25102 m3/s.\n   **   ~~~   ** ...Unitary system volumetric flow rate = 0.25102 m3/s.\n   ** Warning ** ZoneHVAC:PackagedTerminalAirConditioner \"CYCLING PTAC DX CLG ELEC HTG 31\"\n   **   ~~~   ** ...For fan type and name = Fan:OnOff \"CYCLING ELEC PTAC FAN 31\"\n   **   ~~~   ** ...Fan power ratio function of speed ratio curve has no impact if fan volumetric flow rate is the same as the unitary system volumetric flow rate.\n   **   ~~~   ** ...Fan volumetric flow rate            = 0.22470 m3/s.\n   **   ~~~   ** ...Unitary system volumetric flow rate = 0.22470 m3/s.\n   ** Warning ** ZoneHVAC:PackagedTerminalAirConditioner \"CYCLING PTAC DX CLG ELEC HTG 29\"\n   **   ~~~   ** ...For fan type and name = Fan:OnOff \"CYCLING ELEC PTAC FAN 29\"\n   **   ~~~   ** ...Fan power ratio function of speed ratio curve has no impact if fan volumetric flow rate is the same as the unitary system volumetric flow rate.\n   **   ~~~   ** ...Fan volumetric flow rate            = 0.19729 m3/s.\n   **   ~~~   ** ...Unitary system volumetric flow rate = 0.19729 m3/s.\n   ** Warning ** ZoneHVAC:PackagedTerminalAirConditioner \"CYCLING PTAC DX CLG ELEC HTG 14\"\n   **   ~~~   ** ...For fan type and name = Fan:OnOff \"CYCLING ELEC PTAC FAN 14\"\n   **   ~~~   ** ...Fan power ratio function of speed ratio curve has no impact if fan volumetric flow rate is the same as the unitary system volumetric flow rate.\n   **   ~~~   ** ...Fan volumetric flow rate            = 0.18820 m3/s.\n   **   ~~~   ** ...Unitary system volumetric flow rate = 0.18820 m3/s.\n   ** Warning ** ZoneHVAC:PackagedTerminalAirConditioner \"CYCLING PTAC DX CLG ELEC HTG 22\"\n   **   ~~~   ** ...For fan type and name = Fan:OnOff \"CYCLING ELEC PTAC FAN 22\"\n   **   ~~~   ** ...Fan power ratio function of speed ratio curve has no impact if fan volumetric flow rate is the same as the unitary system volumetric flow rate.\n   **   ~~~   ** ...Fan volumetric flow rate            = 0.25110 m3/s.\n   **   ~~~   ** ...Unitary system volumetric flow rate = 0.25110 m3/s.\n   ** Warning ** ZoneHVAC:PackagedTerminalAirConditioner \"CYCLING PTAC DX CLG ELEC HTG 4\"\n   **   ~~~   ** ...For fan type and name = Fan:OnOff \"CYCLING ELEC PTAC FAN 4\"\n   **   ~~~   ** ...Fan power ratio function of speed ratio curve has no impact if fan volumetric flow rate is the same as the unitary system volumetric flow rate.\n   **   ~~~   ** ...Fan volumetric flow rate            = 0.24993 m3/s.\n   **   ~~~   ** ...Unitary system volumetric flow rate = 0.24993 m3/s.\n   ** Warning ** ZoneHVAC:PackagedTerminalAirConditioner \"CYCLING PTAC DX CLG ELEC HTG 30\"\n   **   ~~~   ** ...For fan type and name = Fan:OnOff \"CYCLING ELEC PTAC FAN 30\"\n   **   ~~~   ** ...Fan power ratio function of speed ratio curve has no impact if fan volumetric flow rate is the same as the unitary system volumetric flow rate.\n   **   ~~~   ** ...Fan volumetric flow rate            = 7.47956E-002 m3/s.\n   **   ~~~   ** ...Unitary system volumetric flow rate = 7.47956E-002 m3/s.\n   ** Warning ** ZoneHVAC:PackagedTerminalAirConditioner \"CYCLING PTAC DX CLG ELEC HTG 26\"\n   **   ~~~   ** ...For fan type and name = Fan:OnOff \"CYCLING ELEC PTAC FAN 26\"\n   **   ~~~   ** ...Fan power ratio function of speed ratio curve has no impact if fan volumetric flow rate is the same as the unitary system volumetric flow rate.\n   **   ~~~   ** ...Fan volumetric flow rate            = 0.18835 m3/s.\n   **   ~~~   ** ...Unitary system volumetric flow rate = 0.18835 m3/s.\n   ** Warning ** ZoneHVAC:PackagedTerminalAirConditioner \"CYCLING PTAC DX CLG ELEC HTG 13\"\n   **   ~~~   ** ...For fan type and name = Fan:OnOff \"CYCLING ELEC PTAC FAN 13\"\n   **   ~~~   ** ...Fan power ratio function of speed ratio curve has no impact if fan volumetric flow rate is the same as the unitary system volumetric flow rate.\n   **   ~~~   ** ...Fan volumetric flow rate            = 0.22038 m3/s.\n   **   ~~~   ** ...Unitary system volumetric flow rate = 0.22038 m3/s.\n   ** Warning ** ZoneHVAC:PackagedTerminalAirConditioner \"CYCLING PTAC DX CLG ELEC HTG 23\"\n   **   ~~~   ** ...For fan type and name = Fan:OnOff \"CYCLING ELEC PTAC FAN 23\"\n   **   ~~~   ** ...Fan power ratio function of speed ratio curve has no impact if fan volumetric flow rate is the same as the unitary system volumetric flow rate.\n   **   ~~~   ** ...Fan volumetric flow rate            = 0.17019 m3/s.\n   **   ~~~   ** ...Unitary system volumetric flow rate = 0.17019 m3/s.\n   ** Warning ** ZoneHVAC:PackagedTerminalAirConditioner \"CYCLING PTAC DX CLG ELEC HTG 15\"\n   **   ~~~   ** ...For fan type and name = Fan:OnOff \"CYCLING ELEC PTAC FAN 15\"\n   **   ~~~   ** ...Fan power ratio function of speed ratio curve has no impact if fan volumetric flow rate is the same as the unitary system volumetric flow rate.\n   **   ~~~   ** ...Fan volumetric flow rate            = 0.18697 m3/s.\n   **   ~~~   ** ...Unitary system volumetric flow rate = 0.18697 m3/s.\n   ** Warning ** ZoneHVAC:PackagedTerminalAirConditioner \"CYCLING PTAC DX CLG ELEC HTG 8\"\n   **   ~~~   ** ...For fan type and name = Fan:OnOff \"CYCLING ELEC PTAC FAN 8\"\n   **   ~~~   ** ...Fan power ratio function of speed ratio curve has no impact if fan volumetric flow rate is the same as the unitary system volumetric flow rate.\n   **   ~~~   ** ...Fan volumetric flow rate            = 0.25110 m3/s.\n   **   ~~~   ** ...Unitary system volumetric flow rate = 0.25110 m3/s.\n   ** Warning ** ZoneHVAC:PackagedTerminalAirConditioner \"CYCLING PTAC DX CLG ELEC HTG 7\"\n   **   ~~~   ** ...For fan type and name = Fan:OnOff \"CYCLING ELEC PTAC FAN 7\"\n   **   ~~~   ** ...Fan power ratio function of speed ratio curve has no impact if fan volumetric flow rate is the same as the unitary system volumetric flow rate.\n   **   ~~~   ** ...Fan volumetric flow rate            = 0.26476 m3/s.\n   **   ~~~   ** ...Unitary system volumetric flow rate = 0.26476 m3/s.\n   ** Warning ** ZoneHVAC:PackagedTerminalAirConditioner \"CYCLING PTAC DX CLG ELEC HTG 17\"\n   **   ~~~   ** ...For fan type and name = Fan:OnOff \"CYCLING ELEC PTAC FAN 17\"\n   **   ~~~   ** ...Fan power ratio function of speed ratio curve has no impact if fan volumetric flow rate is the same as the unitary system volumetric flow rate.\n   **   ~~~   ** ...Fan volumetric flow rate            = 0.16954 m3/s.\n   **   ~~~   ** ...Unitary system volumetric flow rate = 0.16954 m3/s.\n   ** Warning ** ZoneHVAC:PackagedTerminalAirConditioner \"CYCLING PTAC DX CLG ELEC HTG 5\"\n   **   ~~~   ** ...For fan type and name = Fan:OnOff \"CYCLING ELEC PTAC FAN 5\"\n   **   ~~~   ** ...Fan power ratio function of speed ratio curve has no impact if fan volumetric flow rate is the same as the unitary system volumetric flow rate.\n   **   ~~~   ** ...Fan volumetric flow rate            = 0.18465 m3/s.\n   **   ~~~   ** ...Unitary system volumetric flow rate = 0.18465 m3/s.\n   ** Warning ** ZoneHVAC:PackagedTerminalAirConditioner \"CYCLING PTAC DX CLG ELEC HTG 35\"\n   **   ~~~   ** ...For fan type and name = Fan:OnOff \"CYCLING ELEC PTAC FAN 35\"\n   **   ~~~   ** ...Fan power ratio function of speed ratio curve has no impact if fan volumetric flow rate is the same as the unitary system volumetric flow rate.\n   **   ~~~   ** ...Fan volumetric flow rate            = 0.18804 m3/s.\n   **   ~~~   ** ...Unitary system volumetric flow rate = 0.18804 m3/s.\n   ** Warning ** ZoneHVAC:PackagedTerminalAirConditioner \"CYCLING PTAC DX CLG ELEC HTG 37\"\n   **   ~~~   ** ...For fan type and name = Fan:OnOff \"CYCLING ELEC PTAC FAN 37\"\n   **   ~~~   ** ...Fan power ratio function of speed ratio curve has no impact if fan volumetric flow rate is the same as the unitary system volumetric flow rate.\n   **   ~~~   ** ...Fan volumetric flow rate            = 0.21855 m3/s.\n   **   ~~~   ** ...Unitary system volumetric flow rate = 0.21855 m3/s.\n   ** Warning ** ZoneHVAC:PackagedTerminalAirConditioner \"CYCLING PTAC DX CLG ELEC HTG 32\"\n   **   ~~~   ** ...For fan type and name = Fan:OnOff \"CYCLING ELEC PTAC FAN 32\"\n   **   ~~~   ** ...Fan power ratio function of speed ratio curve has no impact if fan volumetric flow rate is the same as the unitary system volumetric flow rate.\n   **   ~~~   ** ...Fan volumetric flow rate            = 0.18280 m3/s.\n   **   ~~~   ** ...Unitary system volumetric flow rate = 0.18280 m3/s.\n   ** Warning ** ZoneHVAC:PackagedTerminalAirConditioner \"CYCLING PTAC DX CLG ELEC HTG 36\"\n   **   ~~~   ** ...For fan type and name = Fan:OnOff \"CYCLING ELEC PTAC FAN 36\"\n   **   ~~~   ** ...Fan power ratio function of speed ratio curve has no impact if fan volumetric flow rate is the same as the unitary system volumetric flow rate.\n   **   ~~~   ** ...Fan volumetric flow rate            = 0.16687 m3/s.\n   **   ~~~   ** ...Unitary system volumetric flow rate = 0.16687 m3/s.\n   ** Warning ** ZoneHVAC:PackagedTerminalAirConditioner \"CYCLING PTAC DX CLG ELEC HTG 34\"\n   **   ~~~   ** ...For fan type and name = Fan:OnOff \"CYCLING ELEC PTAC FAN 34\"\n   **   ~~~   ** ...Fan power ratio function of speed ratio curve has no impact if fan volumetric flow rate is the same as the unitary system volumetric flow rate.\n   **   ~~~   ** ...Fan volumetric flow rate            = 0.16864 m3/s.\n   **   ~~~   ** ...Unitary system volumetric flow rate = 0.16864 m3/s.\n   ** Warning ** ZoneHVAC:PackagedTerminalAirConditioner \"CYCLING PTAC DX CLG ELEC HTG 33\"\n   **   ~~~   ** ...For fan type and name = Fan:OnOff \"CYCLING ELEC PTAC FAN 33\"\n   **   ~~~   ** ...Fan power ratio function of speed ratio curve has no impact if fan volumetric flow rate is the same as the unitary system volumetric flow rate.\n   **   ~~~   ** ...Fan volumetric flow rate            = 0.21730 m3/s.\n   **   ~~~   ** ...Unitary system volumetric flow rate = 0.21730 m3/s.\n   ** Warning ** ZoneHVAC:PackagedTerminalAirConditioner \"CYCLING PTAC DX CLG ELEC HTG 61\"\n   **   ~~~   ** ...For fan type and name = Fan:OnOff \"CYCLING ELEC PTAC FAN 61\"\n   **   ~~~   ** ...Fan power ratio function of speed ratio curve has no impact if fan volumetric flow rate is the same as the unitary system volumetric flow rate.\n   **   ~~~   ** ...Fan volumetric flow rate            = 0.18323 m3/s.\n   **   ~~~   ** ...Unitary system volumetric flow rate = 0.18323 m3/s.\n   ** Warning ** ZoneHVAC:PackagedTerminalAirConditioner \"CYCLING PTAC DX CLG ELEC HTG 12\"\n   **   ~~~   ** ...For fan type and name = Fan:OnOff \"CYCLING ELEC PTAC FAN 12\"\n   **   ~~~   ** ...Fan power ratio function of speed ratio curve has no impact if fan volumetric flow rate is the same as the unitary system volumetric flow rate.\n   **   ~~~   ** ...Fan volumetric flow rate            = 6.19058E-002 m3/s.\n   **   ~~~   ** ...Unitary system volumetric flow rate = 6.19058E-002 m3/s.\n   ** Warning ** ZoneHVAC:PackagedTerminalAirConditioner \"CYCLING PTAC DX CLG ELEC HTG 56\"\n   **   ~~~   ** ...For fan type and name = Fan:OnOff \"CYCLING ELEC PTAC FAN 56\"\n   **   ~~~   ** ...Fan power ratio function of speed ratio curve has no impact if fan volumetric flow rate is the same as the unitary system volumetric flow rate.\n   **   ~~~   ** ...Fan volumetric flow rate            = 7.65496E-002 m3/s.\n   **   ~~~   ** ...Unitary system volumetric flow rate = 7.65496E-002 m3/s.\n   ** Warning ** ZoneHVAC:PackagedTerminalAirConditioner \"CYCLING PTAC DX CLG ELEC HTG 55\"\n   **   ~~~   ** ...For fan type and name = Fan:OnOff \"CYCLING ELEC PTAC FAN 55\"\n   **   ~~~   ** ...Fan power ratio function of speed ratio curve has no impact if fan volumetric flow rate is the same as the unitary system volumetric flow rate.\n   **   ~~~   ** ...Fan volumetric flow rate            = 0.24694 m3/s.\n   **   ~~~   ** ...Unitary system volumetric flow rate = 0.24694 m3/s.\n   ** Warning ** ZoneHVAC:PackagedTerminalAirConditioner \"CYCLING PTAC DX CLG ELEC HTG 65\"\n   **   ~~~   ** ...For fan type and name = Fan:OnOff \"CYCLING ELEC PTAC FAN 65\"\n   **   ~~~   ** ...Fan power ratio function of speed ratio curve has no impact if fan volumetric flow rate is the same as the unitary system volumetric flow rate.\n   **   ~~~   ** ...Fan volumetric flow rate            = 0.20130 m3/s.\n   **   ~~~   ** ...Unitary system volumetric flow rate = 0.20130 m3/s.\n   ** Warning ** ZoneHVAC:PackagedTerminalAirConditioner \"CYCLING PTAC DX CLG ELEC HTG 53\"\n   **   ~~~   ** ...For fan type and name = Fan:OnOff \"CYCLING ELEC PTAC FAN 53\"\n   **   ~~~   ** ...Fan power ratio function of speed ratio curve has no impact if fan volumetric flow rate is the same as the unitary system volumetric flow rate.\n   **   ~~~   ** ...Fan volumetric flow rate            = 0.22141 m3/s.\n   **   ~~~   ** ...Unitary system volumetric flow rate = 0.22141 m3/s.\n   ** Warning ** ZoneHVAC:PackagedTerminalAirConditioner \"CYCLING PTAC DX CLG ELEC HTG 43\"\n   **   ~~~   ** ...For fan type and name = Fan:OnOff \"CYCLING ELEC PTAC FAN 43\"\n   **   ~~~   ** ...Fan power ratio function of speed ratio curve has no impact if fan volumetric flow rate is the same as the unitary system volumetric flow rate.\n   **   ~~~   ** ...Fan volumetric flow rate            = 0.16690 m3/s.\n   **   ~~~   ** ...Unitary system volumetric flow rate = 0.16690 m3/s.\n   ** Warning ** ZoneHVAC:PackagedTerminalAirConditioner \"CYCLING PTAC DX CLG ELEC HTG 57\"\n   **   ~~~   ** ...For fan type and name = Fan:OnOff \"CYCLING ELEC PTAC FAN 57\"\n   **   ~~~   ** ...Fan power ratio function of speed ratio curve has no impact if fan volumetric flow rate is the same as the unitary system volumetric flow rate.\n   **   ~~~   ** ...Fan volumetric flow rate            = 0.18830 m3/s.\n   **   ~~~   ** ...Unitary system volumetric flow rate = 0.18830 m3/s.\n   ** Warning ** ZoneHVAC:PackagedTerminalAirConditioner \"CYCLING PTAC DX CLG ELEC HTG 67\"\n   **   ~~~   ** ...For fan type and name = Fan:OnOff \"CYCLING ELEC PTAC FAN 67\"\n   **   ~~~   ** ...Fan power ratio function of speed ratio curve has no impact if fan volumetric flow rate is the same as the unitary system volumetric flow rate.\n   **   ~~~   ** ...Fan volumetric flow rate            = 0.17120 m3/s.\n   **   ~~~   ** ...Unitary system volumetric flow rate = 0.17120 m3/s.\n   ** Warning ** ZoneHVAC:PackagedTerminalAirConditioner \"CYCLING PTAC DX CLG ELEC HTG 68\"\n   **   ~~~   ** ...For fan type and name = Fan:OnOff \"CYCLING ELEC PTAC FAN 68\"\n   **   ~~~   ** ...Fan power ratio function of speed ratio curve has no impact if fan volumetric flow rate is the same as the unitary system volumetric flow rate.\n   **   ~~~   ** ...Fan volumetric flow rate            = 0.16983 m3/s.\n   **   ~~~   ** ...Unitary system volumetric flow rate = 0.16983 m3/s.\n   ** Warning ** ZoneHVAC:PackagedTerminalAirConditioner \"CYCLING PTAC DX CLG ELEC HTG 62\"\n   **   ~~~   ** ...For fan type and name = Fan:OnOff \"CYCLING ELEC PTAC FAN 62\"\n   **   ~~~   ** ...Fan power ratio function of speed ratio curve has no impact if fan volumetric flow rate is the same as the unitary system volumetric flow rate.\n   **   ~~~   ** ...Fan volumetric flow rate            = 0.18345 m3/s.\n   **   ~~~   ** ...Unitary system volumetric flow rate = 0.18345 m3/s.\n   ** Warning ** ZoneHVAC:PackagedTerminalAirConditioner \"CYCLING PTAC DX CLG ELEC HTG 63\"\n   **   ~~~   ** ...For fan type and name = Fan:OnOff \"CYCLING ELEC PTAC FAN 63\"\n   **   ~~~   ** ...Fan power ratio function of speed ratio curve has no impact if fan volumetric flow rate is the same as the unitary system volumetric flow rate.\n   **   ~~~   ** ...Fan volumetric flow rate            = 0.18605 m3/s.\n   **   ~~~   ** ...Unitary system volumetric flow rate = 0.18605 m3/s.\n   ** Warning ** ZoneHVAC:PackagedTerminalAirConditioner \"CYCLING PTAC DX CLG ELEC HTG 21\"\n   **   ~~~   ** ...For fan type and name = Fan:OnOff \"CYCLING ELEC PTAC FAN 21\"\n   **   ~~~   ** ...Fan power ratio function of speed ratio curve has no impact if fan volumetric flow rate is the same as the unitary system volumetric flow rate.\n   **   ~~~   ** ...Fan volumetric flow rate            = 0.18202 m3/s.\n   **   ~~~   ** ...Unitary system volumetric flow rate = 0.18202 m3/s.\n   ** Warning ** ZoneHVAC:PackagedTerminalAirConditioner \"CYCLING PTAC DX CLG ELEC HTG 50\"\n   **   ~~~   ** ...For fan type and name = Fan:OnOff \"CYCLING ELEC PTAC FAN 50\"\n   **   ~~~   ** ...Fan power ratio function of speed ratio curve has no impact if fan volumetric flow rate is the same as the unitary system volumetric flow rate.\n   **   ~~~   ** ...Fan volumetric flow rate            = 0.21856 m3/s.\n   **   ~~~   ** ...Unitary system volumetric flow rate = 0.21856 m3/s.\n   ** Warning ** ZoneHVAC:PackagedTerminalAirConditioner \"CYCLING PTAC DX CLG ELEC HTG 51\"\n   **   ~~~   ** ...For fan type and name = Fan:OnOff \"CYCLING ELEC PTAC FAN 51\"\n   **   ~~~   ** ...Fan power ratio function of speed ratio curve has no impact if fan volumetric flow rate is the same as the unitary system volumetric flow rate.\n   **   ~~~   ** ...Fan volumetric flow rate            = 0.18861 m3/s.\n   **   ~~~   ** ...Unitary system volumetric flow rate = 0.18861 m3/s.\n   ** Warning ** ZoneHVAC:PackagedTerminalAirConditioner \"CYCLING PTAC DX CLG ELEC HTG 60\"\n   **   ~~~   ** ...For fan type and name = Fan:OnOff \"CYCLING ELEC PTAC FAN 60\"\n   **   ~~~   ** ...Fan power ratio function of speed ratio curve has no impact if fan volumetric flow rate is the same as the unitary system volumetric flow rate.\n   **   ~~~   ** ...Fan volumetric flow rate            = 0.25119 m3/s.\n   **   ~~~   ** ...Unitary system volumetric flow rate = 0.25119 m3/s.\n   ** Warning ** ZoneHVAC:PackagedTerminalAirConditioner \"CYCLING PTAC DX CLG ELEC HTG 44\"\n   **   ~~~   ** ...For fan type and name = Fan:OnOff \"CYCLING ELEC PTAC FAN 44\"\n   **   ~~~   ** ...Fan power ratio function of speed ratio curve has no impact if fan volumetric flow rate is the same as the unitary system volumetric flow rate.\n   **   ~~~   ** ...Fan volumetric flow rate            = 7.67505E-002 m3/s.\n   **   ~~~   ** ...Unitary system volumetric flow rate = 7.67505E-002 m3/s.\n   ** Warning ** ZoneHVAC:PackagedTerminalAirConditioner \"CYCLING PTAC DX CLG ELEC HTG 59\"\n   **   ~~~   ** ...For fan type and name = Fan:OnOff \"CYCLING ELEC PTAC FAN 59\"\n   **   ~~~   ** ...Fan power ratio function of speed ratio curve has no impact if fan volumetric flow rate is the same as the unitary system volumetric flow rate.\n   **   ~~~   ** ...Fan volumetric flow rate            = 0.22114 m3/s.\n   **   ~~~   ** ...Unitary system volumetric flow rate = 0.22114 m3/s.\n   ** Warning ** ZoneHVAC:PackagedTerminalAirConditioner \"CYCLING PTAC DX CLG ELEC HTG 47\"\n   **   ~~~   ** ...For fan type and name = Fan:OnOff \"CYCLING ELEC PTAC FAN 47\"\n   **   ~~~   ** ...Fan power ratio function of speed ratio curve has no impact if fan volumetric flow rate is the same as the unitary system volumetric flow rate.\n   **   ~~~   ** ...Fan volumetric flow rate            = 0.18582 m3/s.\n   **   ~~~   ** ...Unitary system volumetric flow rate = 0.18582 m3/s.\n   ** Warning ** ZoneHVAC:PackagedTerminalAirConditioner \"CYCLING PTAC DX CLG ELEC HTG 54\"\n   **   ~~~   ** ...For fan type and name = Fan:OnOff \"CYCLING ELEC PTAC FAN 54\"\n   **   ~~~   ** ...Fan power ratio function of speed ratio curve has no impact if fan volumetric flow rate is the same as the unitary system volumetric flow rate.\n   **   ~~~   ** ...Fan volumetric flow rate            = 0.17115 m3/s.\n   **   ~~~   ** ...Unitary system volumetric flow rate = 0.17115 m3/s.\n   ** Warning ** ZoneHVAC:PackagedTerminalAirConditioner \"CYCLING PTAC DX CLG ELEC HTG 69\"\n   **   ~~~   ** ...For fan type and name = Fan:OnOff \"CYCLING ELEC PTAC FAN 69\"\n   **   ~~~   ** ...Fan power ratio function of speed ratio curve has no impact if fan volumetric flow rate is the same as the unitary system volumetric flow rate.\n   **   ~~~   ** ...Fan volumetric flow rate            = 0.18352 m3/s.\n   **   ~~~   ** ...Unitary system volumetric flow rate = 0.18352 m3/s.\n   ** Warning ** ZoneHVAC:PackagedTerminalAirConditioner \"CYCLING PTAC DX CLG ELEC HTG 38\"\n   **   ~~~   ** ...For fan type and name = Fan:OnOff \"CYCLING ELEC PTAC FAN 38\"\n   **   ~~~   ** ...Fan power ratio function of speed ratio curve has no impact if fan volumetric flow rate is the same as the unitary system volumetric flow rate.\n   **   ~~~   ** ...Fan volumetric flow rate            = 0.16856 m3/s.\n   **   ~~~   ** ...Unitary system volumetric flow rate = 0.16856 m3/s.\n   ** Warning ** ZoneHVAC:PackagedTerminalAirConditioner \"CYCLING PTAC DX CLG ELEC HTG 39\"\n   **   ~~~   ** ...For fan type and name = Fan:OnOff \"CYCLING ELEC PTAC FAN 39\"\n   **   ~~~   ** ...Fan power ratio function of speed ratio curve has no impact if fan volumetric flow rate is the same as the unitary system volumetric flow rate.\n   **   ~~~   ** ...Fan volumetric flow rate            = 0.18337 m3/s.\n   **   ~~~   ** ...Unitary system volumetric flow rate = 0.18337 m3/s.\n   ** Warning ** ZoneHVAC:PackagedTerminalAirConditioner \"CYCLING PTAC DX CLG ELEC HTG 18\"\n   **   ~~~   ** ...For fan type and name = Fan:OnOff \"CYCLING ELEC PTAC FAN 18\"\n   **   ~~~   ** ...Fan power ratio function of speed ratio curve has no impact if fan volumetric flow rate is the same as the unitary system volumetric flow rate.\n   **   ~~~   ** ...Fan volumetric flow rate            = 0.23237 m3/s.\n   **   ~~~   ** ...Unitary system volumetric flow rate = 0.23237 m3/s.\n   ** Warning ** ZoneHVAC:PackagedTerminalAirConditioner \"CYCLING PTAC DX CLG ELEC HTG 66\"\n   **   ~~~   ** ...For fan type and name = Fan:OnOff \"CYCLING ELEC PTAC FAN 66\"\n   **   ~~~   ** ...Fan power ratio function of speed ratio curve has no impact if fan volumetric flow rate is the same as the unitary system volumetric flow rate.\n   **   ~~~   ** ...Fan volumetric flow rate            = 0.22036 m3/s.\n   **   ~~~   ** ...Unitary system volumetric flow rate = 0.22036 m3/s.\n   ** Warning ** ZoneHVAC:PackagedTerminalAirConditioner \"CYCLING PTAC DX CLG ELEC HTG 52\"\n   **   ~~~   ** ...For fan type and name = Fan:OnOff \"CYCLING ELEC PTAC FAN 52\"\n   **   ~~~   ** ...Fan power ratio function of speed ratio curve has no impact if fan volumetric flow rate is the same as the unitary system volumetric flow rate.\n   **   ~~~   ** ...Fan volumetric flow rate            = 0.18611 m3/s.\n   **   ~~~   ** ...Unitary system volumetric flow rate = 0.18611 m3/s.\n   ** Warning ** ZoneHVAC:PackagedTerminalAirConditioner \"CYCLING PTAC DX CLG ELEC HTG 64\"\n   **   ~~~   ** ...For fan type and name = Fan:OnOff \"CYCLING ELEC PTAC FAN 64\"\n   **   ~~~   ** ...Fan power ratio function of speed ratio curve has no impact if fan volumetric flow rate is the same as the unitary system volumetric flow rate.\n   **   ~~~   ** ...Fan volumetric flow rate            = 0.17030 m3/s.\n   **   ~~~   ** ...Unitary system volumetric flow rate = 0.17030 m3/s.\n   ** Warning ** ZoneHVAC:PackagedTerminalAirConditioner \"CYCLING PTAC DX CLG ELEC HTG 40\"\n   **   ~~~   ** ...For fan type and name = Fan:OnOff \"CYCLING ELEC PTAC FAN 40\"\n   **   ~~~   ** ...Fan power ratio function of speed ratio curve has no impact if fan volumetric flow rate is the same as the unitary system volumetric flow rate.\n   **   ~~~   ** ...Fan volumetric flow rate            = 0.21866 m3/s.\n   **   ~~~   ** ...Unitary system volumetric flow rate = 0.21866 m3/s.\n   ** Warning ** ZoneHVAC:PackagedTerminalAirConditioner \"CYCLING PTAC DX CLG ELEC HTG 41\"\n   **   ~~~   ** ...For fan type and name = Fan:OnOff \"CYCLING ELEC PTAC FAN 41\"\n   **   ~~~   ** ...Fan power ratio function of speed ratio curve has no impact if fan volumetric flow rate is the same as the unitary system volumetric flow rate.\n   **   ~~~   ** ...Fan volumetric flow rate            = 0.22073 m3/s.\n   **   ~~~   ** ...Unitary system volumetric flow rate = 0.22073 m3/s.\n   ** Warning ** ZoneHVAC:PackagedTerminalAirConditioner \"CYCLING PTAC DX CLG ELEC HTG 42\"\n   **   ~~~   ** ...For fan type and name = Fan:OnOff \"CYCLING ELEC PTAC FAN 42\"\n   **   ~~~   ** ...Fan power ratio function of speed ratio curve has no impact if fan volumetric flow rate is the same as the unitary system volumetric flow rate.\n   **   ~~~   ** ...Fan volumetric flow rate            = 7.67457E-002 m3/s.\n   **   ~~~   ** ...Unitary system volumetric flow rate = 7.67457E-002 m3/s.\n   ** Warning ** ZoneHVAC:PackagedTerminalAirConditioner \"CYCLING PTAC DX CLG ELEC HTG 45\"\n   **   ~~~   ** ...For fan type and name = Fan:OnOff \"CYCLING ELEC PTAC FAN 45\"\n   **   ~~~   ** ...Fan power ratio function of speed ratio curve has no impact if fan volumetric flow rate is the same as the unitary system volumetric flow rate.\n   **   ~~~   ** ...Fan volumetric flow rate            = 0.18839 m3/s.\n   **   ~~~   ** ...Unitary system volumetric flow rate = 0.18839 m3/s.\n   ** Warning ** ZoneHVAC:PackagedTerminalAirConditioner \"CYCLING PTAC DX CLG ELEC HTG 46\"\n   **   ~~~   ** ...For fan type and name = Fan:OnOff \"CYCLING ELEC PTAC FAN 46\"\n   **   ~~~   ** ...Fan power ratio function of speed ratio curve has no impact if fan volumetric flow rate is the same as the unitary system volumetric flow rate.\n   **   ~~~   ** ...Fan volumetric flow rate            = 0.16829 m3/s.\n   **   ~~~   ** ...Unitary system volumetric flow rate = 0.16829 m3/s.\n   ** Warning ** ZoneHVAC:PackagedTerminalAirConditioner \"CYCLING PTAC DX CLG ELEC HTG 48\"\n   **   ~~~   ** ...For fan type and name = Fan:OnOff \"CYCLING ELEC PTAC FAN 48\"\n   **   ~~~   ** ...Fan power ratio function of speed ratio curve has no impact if fan volumetric flow rate is the same as the unitary system volumetric flow rate.\n   **   ~~~   ** ...Fan volumetric flow rate            = 0.16733 m3/s.\n   **   ~~~   ** ...Unitary system volumetric flow rate = 0.16733 m3/s.\n   ** Warning ** ZoneHVAC:PackagedTerminalAirConditioner \"CYCLING PTAC DX CLG ELEC HTG 49\"\n   **   ~~~   ** ...For fan type and name = Fan:OnOff \"CYCLING ELEC PTAC FAN 49\"\n   **   ~~~   ** ...Fan power ratio function of speed ratio curve has no impact if fan volumetric flow rate is the same as the unitary system volumetric flow rate.\n   **   ~~~   ** ...Fan volumetric flow rate            = 0.17088 m3/s.\n   **   ~~~   ** ...Unitary system volumetric flow rate = 0.17088 m3/s.\n   ** Warning ** ZoneHVAC:PackagedTerminalAirConditioner \"CYCLING PTAC DX CLG ELEC HTG 19\"\n   **   ~~~   ** ...For fan type and name = Fan:OnOff \"CYCLING ELEC PTAC FAN 19\"\n   **   ~~~   ** ...Fan power ratio function of speed ratio curve has no impact if fan volumetric flow rate is the same as the unitary system volumetric flow rate.\n   **   ~~~   ** ...Fan volumetric flow rate            = 0.17036 m3/s.\n   **   ~~~   ** ...Unitary system volumetric flow rate = 0.17036 m3/s.\n   ** Warning ** ZoneHVAC:PackagedTerminalAirConditioner \"CYCLING PTAC DX CLG ELEC HTG 58\"\n   **   ~~~   ** ...For fan type and name = Fan:OnOff \"CYCLING ELEC PTAC FAN 58\"\n   **   ~~~   ** ...Fan power ratio function of speed ratio curve has no impact if fan volumetric flow rate is the same as the unitary system volumetric flow rate.\n   **   ~~~   ** ...Fan volumetric flow rate            = 0.48803 m3/s.\n   **   ~~~   ** ...Unitary system volumetric flow rate = 0.48803 m3/s.\n   ** Warning ** ZoneHVAC:PackagedTerminalAirConditioner \"CYCLING PTAC DX CLG ELEC HTG 71\"\n   **   ~~~   ** ...For fan type and name = Fan:OnOff \"CYCLING ELEC PTAC FAN 71\"\n   **   ~~~   ** ...Fan power ratio function of speed ratio curve has no impact if fan volumetric flow rate is the same as the unitary system volumetric flow rate.\n   **   ~~~   ** ...Fan volumetric flow rate            = 0.18605 m3/s.\n   **   ~~~   ** ...Unitary system volumetric flow rate = 0.18605 m3/s.\n   ** Warning ** ZoneHVAC:PackagedTerminalAirConditioner \"CYCLING PTAC DX CLG ELEC HTG 70\"\n   **   ~~~   ** ...For fan type and name = Fan:OnOff \"CYCLING ELEC PTAC FAN 70\"\n   **   ~~~   ** ...Fan power ratio function of speed ratio curve has no impact if fan volumetric flow rate is the same as the unitary system volumetric flow rate.\n   **   ~~~   ** ...Fan volumetric flow rate            = 0.18596 m3/s.\n   **   ~~~   ** ...Unitary system volumetric flow rate = 0.18596 m3/s.\n   ** Warning ** ZoneHVAC:PackagedTerminalAirConditioner \"CYCLING PTAC DX CLG ELEC HTG 72\"\n   **   ~~~   ** ...For fan type and name = Fan:OnOff \"CYCLING ELEC PTAC FAN 72\"\n   **   ~~~   ** ...Fan power ratio function of speed ratio curve has no impact if fan volumetric flow rate is the same as the unitary system volumetric flow rate.\n   **   ~~~   ** ...Fan volumetric flow rate            = 0.17062 m3/s.\n   **   ~~~   ** ...Unitary system volumetric flow rate = 0.17062 m3/s.\n   ** Warning ** ZoneHVAC:PackagedTerminalAirConditioner \"CYCLING PTAC DX CLG ELEC HTG 74\"\n   **   ~~~   ** ...For fan type and name = Fan:OnOff \"CYCLING ELEC PTAC FAN 74\"\n   **   ~~~   ** ...Fan power ratio function of speed ratio curve has no impact if fan volumetric flow rate is the same as the unitary system volumetric flow rate.\n   **   ~~~   ** ...Fan volumetric flow rate            = 0.16802 m3/s.\n   **   ~~~   ** ...Unitary system volumetric flow rate = 0.16802 m3/s.\n   ** Warning ** ZoneHVAC:PackagedTerminalAirConditioner \"CYCLING PTAC DX CLG ELEC HTG 73\"\n   **   ~~~   ** ...For fan type and name = Fan:OnOff \"CYCLING ELEC PTAC FAN 73\"\n   **   ~~~   ** ...Fan power ratio function of speed ratio curve has no impact if fan volumetric flow rate is the same as the unitary system volumetric flow rate.\n   **   ~~~   ** ...Fan volumetric flow rate            = 0.16976 m3/s.\n   **   ~~~   ** ...Unitary system volumetric flow rate = 0.16976 m3/s.\n   ** Warning ** ZoneHVAC:PackagedTerminalAirConditioner \"CYCLING PTAC DX CLG ELEC HTG 75\"\n   **   ~~~   ** ...For fan type and name = Fan:OnOff \"CYCLING ELEC PTAC FAN 75\"\n   **   ~~~   ** ...Fan power ratio function of speed ratio curve has no impact if fan volumetric flow rate is the same as the unitary system volumetric flow rate.\n   **   ~~~   ** ...Fan volumetric flow rate            = 0.21845 m3/s.\n   **   ~~~   ** ...Unitary system volumetric flow rate = 0.21845 m3/s.\n   ** Warning ** ZoneHVAC:PackagedTerminalAirConditioner \"CYCLING PTAC DX CLG ELEC HTG 99\"\n   **   ~~~   ** ...For fan type and name = Fan:OnOff \"CYCLING ELEC PTAC FAN 99\"\n   **   ~~~   ** ...Fan power ratio function of speed ratio curve has no impact if fan volumetric flow rate is the same as the unitary system volumetric flow rate.\n   **   ~~~   ** ...Fan volumetric flow rate            = 0.21388 m3/s.\n   **   ~~~   ** ...Unitary system volumetric flow rate = 0.21388 m3/s.\n   ** Warning ** ZoneHVAC:PackagedTerminalAirConditioner \"CYCLING PTAC DX CLG ELEC HTG 81\"\n   **   ~~~   ** ...For fan type and name = Fan:OnOff \"CYCLING ELEC PTAC FAN 81\"\n   **   ~~~   ** ...Fan power ratio function of speed ratio curve has no impact if fan volumetric flow rate is the same as the unitary system volumetric flow rate.\n   **   ~~~   ** ...Fan volumetric flow rate            = 0.25095 m3/s.\n   **   ~~~   ** ...Unitary system volumetric flow rate = 0.25095 m3/s.\n   ** Warning ** ZoneHVAC:PackagedTerminalAirConditioner \"CYCLING PTAC DX CLG ELEC HTG 79\"\n   **   ~~~   ** ...For fan type and name = Fan:OnOff \"CYCLING ELEC PTAC FAN 79\"\n   **   ~~~   ** ...Fan power ratio function of speed ratio curve has no impact if fan volumetric flow rate is the same as the unitary system volumetric flow rate.\n   **   ~~~   ** ...Fan volumetric flow rate            = 7.67101E-002 m3/s.\n   **   ~~~   ** ...Unitary system volumetric flow rate = 7.67101E-002 m3/s.\n   ** Warning ** ZoneHVAC:PackagedTerminalAirConditioner \"CYCLING PTAC DX CLG ELEC HTG 1\"\n   **   ~~~   ** ...For fan type and name = Fan:OnOff \"CYCLING ELEC PTAC FAN 1\"\n   **   ~~~   ** ...Fan power ratio function of speed ratio curve has no impact if fan volumetric flow rate is the same as the unitary system volumetric flow rate.\n   **   ~~~   ** ...Fan volumetric flow rate            = 0.19662 m3/s.\n   **   ~~~   ** ...Unitary system volumetric flow rate = 0.19662 m3/s.\n   ** Warning ** ZoneHVAC:PackagedTerminalAirConditioner \"CYCLING PTAC DX CLG ELEC HTG 91\"\n   **   ~~~   ** ...For fan type and name = Fan:OnOff \"CYCLING ELEC PTAC FAN 91\"\n   **   ~~~   ** ...Fan power ratio function of speed ratio curve has no impact if fan volumetric flow rate is the same as the unitary system volumetric flow rate.\n   **   ~~~   ** ...Fan volumetric flow rate            = 0.22674 m3/s.\n   **   ~~~   ** ...Unitary system volumetric flow rate = 0.22674 m3/s.\n   ** Warning ** ZoneHVAC:PackagedTerminalAirConditioner \"CYCLING PTAC DX CLG ELEC HTG 100\"\n   **   ~~~   ** ...For fan type and name = Fan:OnOff \"CYCLING ELEC PTAC FAN 100\"\n   **   ~~~   ** ...Fan power ratio function of speed ratio curve has no impact if fan volumetric flow rate is the same as the unitary system volumetric flow rate.\n   **   ~~~   ** ...Fan volumetric flow rate            = 0.18791 m3/s.\n   **   ~~~   ** ...Unitary system volumetric flow rate = 0.18791 m3/s.\n   ** Warning ** ZoneHVAC:PackagedTerminalAirConditioner \"CYCLING PTAC DX CLG ELEC HTG 94\"\n   **   ~~~   ** ...For fan type and name = Fan:OnOff \"CYCLING ELEC PTAC FAN 94\"\n   **   ~~~   ** ...Fan power ratio function of speed ratio curve has no impact if fan volumetric flow rate is the same as the unitary system volumetric flow rate.\n   **   ~~~   ** ...Fan volumetric flow rate            = 0.17039 m3/s.\n   **   ~~~   ** ...Unitary system volumetric flow rate = 0.17039 m3/s.\n   ** Warning ** ZoneHVAC:PackagedTerminalAirConditioner \"CYCLING PTAC DX CLG ELEC HTG 101\"\n   **   ~~~   ** ...For fan type and name = Fan:OnOff \"CYCLING ELEC PTAC FAN 101\"\n   **   ~~~   ** ...Fan power ratio function of speed ratio curve has no impact if fan volumetric flow rate is the same as the unitary system volumetric flow rate.\n   **   ~~~   ** ...Fan volumetric flow rate            = 0.18310 m3/s.\n   **   ~~~   ** ...Unitary system volumetric flow rate = 0.18310 m3/s.\n   ** Warning ** ZoneHVAC:PackagedTerminalAirConditioner \"CYCLING PTAC DX CLG ELEC HTG 102\"\n   **   ~~~   ** ...For fan type and name = Fan:OnOff \"CYCLING ELEC PTAC FAN 102\"\n   **   ~~~   ** ...Fan power ratio function of speed ratio curve has no impact if fan volumetric flow rate is the same as the unitary system volumetric flow rate.\n   **   ~~~   ** ...Fan volumetric flow rate            = 0.27450 m3/s.\n   **   ~~~   ** ...Unitary system volumetric flow rate = 0.27450 m3/s.\n   ** Warning ** ZoneHVAC:PackagedTerminalAirConditioner \"CYCLING PTAC DX CLG ELEC HTG 80\"\n   **   ~~~   ** ...For fan type and name = Fan:OnOff \"CYCLING ELEC PTAC FAN 80\"\n   **   ~~~   ** ...Fan power ratio function of speed ratio curve has no impact if fan volumetric flow rate is the same as the unitary system volumetric flow rate.\n   **   ~~~   ** ...Fan volumetric flow rate            = 0.16779 m3/s.\n   **   ~~~   ** ...Unitary system volumetric flow rate = 0.16779 m3/s.\n   ** Warning ** ZoneHVAC:PackagedTerminalAirConditioner \"CYCLING PTAC DX CLG ELEC HTG 92\"\n   **   ~~~   ** ...For fan type and name = Fan:OnOff \"CYCLING ELEC PTAC FAN 92\"\n   **   ~~~   ** ...Fan power ratio function of speed ratio curve has no impact if fan volumetric flow rate is the same as the unitary system volumetric flow rate.\n   **   ~~~   ** ...Fan volumetric flow rate            = 0.18569 m3/s.\n   **   ~~~   ** ...Unitary system volumetric flow rate = 0.18569 m3/s.\n   ** Warning ** ZoneHVAC:PackagedTerminalAirConditioner \"CYCLING PTAC DX CLG ELEC HTG 89\"\n   **   ~~~   ** ...For fan type and name = Fan:OnOff \"CYCLING ELEC PTAC FAN 89\"\n   **   ~~~   ** ...Fan power ratio function of speed ratio curve has no impact if fan volumetric flow rate is the same as the unitary system volumetric flow rate.\n   **   ~~~   ** ...Fan volumetric flow rate            = 0.16952 m3/s.\n   **   ~~~   ** ...Unitary system volumetric flow rate = 0.16952 m3/s.\n   ** Warning ** ZoneHVAC:PackagedTerminalAirConditioner \"CYCLING PTAC DX CLG ELEC HTG 104\"\n   **   ~~~   ** ...For fan type and name = Fan:OnOff \"CYCLING ELEC PTAC FAN 104\"\n   **   ~~~   ** ...Fan power ratio function of speed ratio curve has no impact if fan volumetric flow rate is the same as the unitary system volumetric flow rate.\n   **   ~~~   ** ...Fan volumetric flow rate            = 0.22644 m3/s.\n   **   ~~~   ** ...Unitary system volumetric flow rate = 0.22644 m3/s.\n   ** Warning ** ZoneHVAC:PackagedTerminalAirConditioner \"CYCLING PTAC DX CLG ELEC HTG 90\"\n   **   ~~~   ** ...For fan type and name = Fan:OnOff \"CYCLING ELEC PTAC FAN 90\"\n   **   ~~~   ** ...Fan power ratio function of speed ratio curve has no impact if fan volumetric flow rate is the same as the unitary system volumetric flow rate.\n   **   ~~~   ** ...Fan volumetric flow rate            = 0.22525 m3/s.\n   **   ~~~   ** ...Unitary system volumetric flow rate = 0.22525 m3/s.\n   ** Warning ** ZoneHVAC:PackagedTerminalAirConditioner \"CYCLING PTAC DX CLG ELEC HTG 16\"\n   **   ~~~   ** ...For fan type and name = Fan:OnOff \"CYCLING ELEC PTAC FAN 16\"\n   **   ~~~   ** ...Fan power ratio function of speed ratio curve has no impact if fan volumetric flow rate is the same as the unitary system volumetric flow rate.\n   **   ~~~   ** ...Fan volumetric flow rate            = 0.18023 m3/s.\n   **   ~~~   ** ...Unitary system volumetric flow rate = 0.18023 m3/s.\n   ** Warning ** ZoneHVAC:PackagedTerminalAirConditioner \"CYCLING PTAC DX CLG ELEC HTG 103\"\n   **   ~~~   ** ...For fan type and name = Fan:OnOff \"CYCLING ELEC PTAC FAN 103\"\n   **   ~~~   ** ...Fan power ratio function of speed ratio curve has no impact if fan volumetric flow rate is the same as the unitary system volumetric flow rate.\n   **   ~~~   ** ...Fan volumetric flow rate            = 7.66618E-002 m3/s.\n   **   ~~~   ** ...Unitary system volumetric flow rate = 7.66618E-002 m3/s.\n   ** Warning ** ZoneHVAC:PackagedTerminalAirConditioner \"CYCLING PTAC DX CLG ELEC HTG 95\"\n   **   ~~~   ** ...For fan type and name = Fan:OnOff \"CYCLING ELEC PTAC FAN 95\"\n   **   ~~~   ** ...Fan power ratio function of speed ratio curve has no impact if fan volumetric flow rate is the same as the unitary system volumetric flow rate.\n   **   ~~~   ** ...Fan volumetric flow rate            = 0.25089 m3/s.\n   **   ~~~   ** ...Unitary system volumetric flow rate = 0.25089 m3/s.\n   ** Warning ** ZoneHVAC:PackagedTerminalAirConditioner \"CYCLING PTAC DX CLG ELEC HTG 76\"\n   **   ~~~   ** ...For fan type and name = Fan:OnOff \"CYCLING ELEC PTAC FAN 76\"\n   **   ~~~   ** ...Fan power ratio function of speed ratio curve has no impact if fan volumetric flow rate is the same as the unitary system volumetric flow rate.\n   **   ~~~   ** ...Fan volumetric flow rate            = 7.66890E-002 m3/s.\n   **   ~~~   ** ...Unitary system volumetric flow rate = 7.66890E-002 m3/s.\n   ** Warning ** ZoneHVAC:PackagedTerminalAirConditioner \"CYCLING PTAC DX CLG ELEC HTG 93\"\n   **   ~~~   ** ...For fan type and name = Fan:OnOff \"CYCLING ELEC PTAC FAN 93\"\n   **   ~~~   ** ...Fan power ratio function of speed ratio curve has no impact if fan volumetric flow rate is the same as the unitary system volumetric flow rate.\n   **   ~~~   ** ...Fan volumetric flow rate            = 0.23721 m3/s.\n   **   ~~~   ** ...Unitary system volumetric flow rate = 0.23721 m3/s.\n   ** Warning ** ZoneHVAC:PackagedTerminalAirConditioner \"CYCLING PTAC DX CLG ELEC HTG 86\"\n   **   ~~~   ** ...For fan type and name = Fan:OnOff \"CYCLING ELEC PTAC FAN 86\"\n   **   ~~~   ** ...Fan power ratio function of speed ratio curve has no impact if fan volumetric flow rate is the same as the unitary system volumetric flow rate.\n   **   ~~~   ** ...Fan volumetric flow rate            = 0.18780 m3/s.\n   **   ~~~   ** ...Unitary system volumetric flow rate = 0.18780 m3/s.\n   ** Warning ** ZoneHVAC:PackagedTerminalAirConditioner \"CYCLING PTAC DX CLG ELEC HTG 96\"\n   **   ~~~   ** ...For fan type and name = Fan:OnOff \"CYCLING ELEC PTAC FAN 96\"\n   **   ~~~   ** ...Fan power ratio function of speed ratio curve has no impact if fan volumetric flow rate is the same as the unitary system volumetric flow rate.\n   **   ~~~   ** ...Fan volumetric flow rate            = 0.18299 m3/s.\n   **   ~~~   ** ...Unitary system volumetric flow rate = 0.18299 m3/s.\n   ** Warning ** ZoneHVAC:PackagedTerminalAirConditioner \"CYCLING PTAC DX CLG ELEC HTG 82\"\n   **   ~~~   ** ...For fan type and name = Fan:OnOff \"CYCLING ELEC PTAC FAN 82\"\n   **   ~~~   ** ...Fan power ratio function of speed ratio curve has no impact if fan volumetric flow rate is the same as the unitary system volumetric flow rate.\n   **   ~~~   ** ...Fan volumetric flow rate            = 0.16757 m3/s.\n   **   ~~~   ** ...Unitary system volumetric flow rate = 0.16757 m3/s.\n   ** Warning ** ZoneHVAC:PackagedTerminalAirConditioner \"CYCLING PTAC DX CLG ELEC HTG 83\"\n   **   ~~~   ** ...For fan type and name = Fan:OnOff \"CYCLING ELEC PTAC FAN 83\"\n   **   ~~~   ** ...Fan power ratio function of speed ratio curve has no impact if fan volumetric flow rate is the same as the unitary system volumetric flow rate.\n   **   ~~~   ** ...Fan volumetric flow rate            = 0.18557 m3/s.\n   **   ~~~   ** ...Unitary system volumetric flow rate = 0.18557 m3/s.\n   ** Warning ** ZoneHVAC:PackagedTerminalAirConditioner \"CYCLING PTAC DX CLG ELEC HTG 84\"\n   **   ~~~   ** ...For fan type and name = Fan:OnOff \"CYCLING ELEC PTAC FAN 84\"\n   **   ~~~   ** ...Fan power ratio function of speed ratio curve has no impact if fan volumetric flow rate is the same as the unitary system volumetric flow rate.\n   **   ~~~   ** ...Fan volumetric flow rate            = 0.16931 m3/s.\n   **   ~~~   ** ...Unitary system volumetric flow rate = 0.16931 m3/s.\n   ** Warning ** ZoneHVAC:PackagedTerminalAirConditioner \"CYCLING PTAC DX CLG ELEC HTG 97\"\n   **   ~~~   ** ...For fan type and name = Fan:OnOff \"CYCLING ELEC PTAC FAN 97\"\n   **   ~~~   ** ...Fan power ratio function of speed ratio curve has no impact if fan volumetric flow rate is the same as the unitary system volumetric flow rate.\n   **   ~~~   ** ...Fan volumetric flow rate            = 0.23691 m3/s.\n   **   ~~~   ** ...Unitary system volumetric flow rate = 0.23691 m3/s.\n   ** Warning ** Output:Meter: invalid Key Name=\"NATURALGAS:FACILITY\" - not found.\n   ** Warning ** Output:Meter: invalid Key Name=\"DISTRICTHEATINGWATER:FACILITY\" - not found.\n   ** Warning ** Output:Meter: invalid Key Name=\"DISTRICTCOOLING:FACILITY\" - not found.\n   ** Warning ** Output:Meter:MeterFileOnly: invalid Key Name=\"NATURALGAS:FACILITY\" - not found.\n   ** Warning ** Output:Meter:MeterFileOnly requested for \"Electricity:Facility\" (TimeStep), already on \"Output:Meter\". Will report to both eplusout.eso and eplusout.mtr\n   ************* Testing Individual Branch Integrity\n   ************* All Branches passed integrity testing\n   ************* Testing Individual Supply Air Path Integrity\n   ************* All Supply Air Paths passed integrity testing\n   ************* Testing Individual Return Air Path Integrity\n   ************* All Return Air Paths passed integrity testing\n   ************* No node connection errors were found.\n   ************* Beginning Simulation\n   ** Warning ** Processing Monthly Tabular Reports: Variable names not valid for this simulation\n   **   ~~~   ** ...use Output:Diagnostics,DisplayExtraWarnings; to show more details on individual variables.\n   ** Warning ** CalcDoe2DXCoil: Coil:Cooling:DX:SingleSpeed \"CYCLING ELEC PTAC 1 SPD DX CLG COIL\" - Air-cooled condenser inlet dry-bulb temperature below 0 C. Outdoor dry-bulb temperature = -9.73\n   **   ~~~   **  ... Occurrence info = RUN PERIOD 1, 01/31 14:10 - 14:20\n   **   ~~~   ** ... Operation at low ambient temperatures may require special performance curves.\n   ** Warning ** CalcDoe2DXCoil: Coil:Cooling:DX:SingleSpeed \"CYCLING ELEC PTAC 1 SPD DX CLG COIL 18\" - Air-cooled condenser inlet dry-bulb temperature below 0 C. Outdoor dry-bulb temperature = -0.81\n   **   ~~~   **  ... Occurrence info = RUN PERIOD 1, 02/09 13:10 - 13:20\n   **   ~~~   ** ... Operation at low ambient temperatures may require special performance curves.\n   ** Warning ** CalcDoe2DXCoil: Coil:Cooling:DX:SingleSpeed \"CYCLING ELEC PTAC 1 SPD DX CLG COIL 28\" - Air-cooled condenser inlet dry-bulb temperature below 0 C. Outdoor dry-bulb temperature = -3.40\n   **   ~~~   **  ... Occurrenc
[...]
               },
               {
                  "name" : "surface_664_c_tbd",
                  "units" : "ft^2",
                  "value" : 183.8475899174025
               },
               {
                  "name" : "surface_669_c_tbd",
                  "units" : "ft^2",
                  "value" : 241.29996176659009
               },
               {
                  "name" : "surface_670_c_tbd",
                  "units" : "ft^2",
                  "value" : 183.84758991740227
               },
               {
                  "name" : "surface_674_c_tbd",
                  "units" : "ft^2",
                  "value" : 45.961897479350576
               },
               {
                  "name" : "surface_680_c_tbd",
                  "units" : "ft^2",
                  "value" : 45.961897479350576
               },
               {
                  "name" : "surface_688_c_tbd",
                  "units" : "ft^2",
                  "value" : 183.84758991740227
               },
               {
                  "name" : "surface_689_c_tbd",
                  "units" : "ft^2",
                  "value" : 241.29996176659009
               },
               {
                  "name" : "surface_696_c_tbd",
                  "units" : "ft^2",
                  "value" : 183.84758991740273
               },
               {
                  "name" : "surface_700_c_tbd",
                  "units" : "ft^2",
                  "value" : 183.84758991740273
               },
               {
                  "name" : "surface_708_c_tbd",
                  "units" : "ft^2",
                  "value" : 183.8475899174025
               },
               {
                  "name" : "surface_71_c_tbd",
                  "units" : "ft^2",
                  "value" : 241.29996176659009
               },
               {
                  "name" : "surface_712_c_tbd",
                  "units" : "ft^2",
                  "value" : 183.84758991740244
               },
               {
                  "name" : "surface_72_c_tbd",
                  "units" : "ft^2",
                  "value" : 183.8475899174025
               },
               {
                  "name" : "surface_720_c_tbd",
                  "units" : "ft^2",
                  "value" : 183.8475899174025
               },
               {
                  "name" : "surface_724_c_tbd",
                  "units" : "ft^2",
                  "value" : 183.84758991740244
               },
               {
                  "name" : "surface_730_c_tbd",
                  "units" : "ft^2",
                  "value" : 183.84758991740244
               },
               {
                  "name" : "surface_731_c_tbd",
                  "units" : "ft^2",
                  "value" : 241.29996176659009
               },
               {
                  "name" : "surface_737_c_tbd",
                  "units" : "ft^2",
                  "value" : 241.29996176659009
               },
               {
                  "name" : "surface_738_c_tbd",
                  "units" : "ft^2",
                  "value" : 183.8475899174025
               },
               {
                  "name" : "surface_743_c_tbd",
                  "units" : "ft^2",
                  "value" : 241.29996176659009
               },
               {
                  "name" : "surface_744_c_tbd",
                  "units" : "ft^2",
                  "value" : 183.84758991740227
               },
               {
                  "name" : "surface_748_c_tbd",
                  "units" : "ft^2",
                  "value" : 45.961897479350576
               },
               {
                  "name" : "surface_754_c_tbd",
                  "units" : "ft^2",
                  "value" : 45.961897479350576
               },
               {
                  "name" : "surface_762_c_tbd",
                  "units" : "ft^2",
                  "value" : 183.84758991740227
               },
               {
                  "name" : "surface_763_c_tbd",
                  "units" : "ft^2",
                  "value" : 241.29996176659009
               },
               {
                  "name" : "surface_77_c_tbd",
                  "units" : "ft^2",
                  "value" : 241.29996176659009
               },
               {
                  "name" : "surface_770_c_tbd",
                  "units" : "ft^2",
                  "value" : 183.84758991740273
               },
               {
                  "name" : "surface_774_c_tbd",
                  "units" : "ft^2",
                  "value" : 183.84758991740273
               },
               {
                  "name" : "surface_78_c_tbd",
                  "units" : "ft^2",
                  "value" : 183.84758991740227
               },
               {
                  "name" : "surface_782_c_tbd",
                  "units" : "ft^2",
                  "value" : 183.8475899174025
               },
               {
                  "name" : "surface_786_c_tbd",
                  "units" : "ft^2",
                  "value" : 183.84758991740244
               },
               {
                  "name" : "surface_794_c_tbd",
                  "units" : "ft^2",
                  "value" : 183.8475899174025
               },
               {
                  "name" : "surface_798_c_tbd",
                  "units" : "ft^2",
                  "value" : 183.84758991740244
               },
               {
                  "name" : "surface_8_c_tbd",
                  "units" : "ft^2",
                  "value" : 45.961897479350576
               },
               {
                  "name" : "surface_804_c_tbd",
                  "units" : "ft^2",
                  "value" : 183.84758991740244
               },
               {
                  "name" : "surface_805_c_tbd",
                  "units" : "ft^2",
                  "value" : 241.29996176659009
               },
               {
                  "name" : "surface_811_c_tbd",
                  "units" : "ft^2",
                  "value" : 241.29996176659009
               },
               {
                  "name" : "surface_812_c_tbd",
                  "units" : "ft^2",
                  "value" : 183.8475899174025
               },
               {
                  "name" : "surface_817_c_tbd",
                  "units" : "ft^2",
                  "value" : 241.29996176659009
               },
               {
                  "name" : "surface_818_c_tbd",
                  "units" : "ft^2",
                  "value" : 183.84758991740227
               },
               {
                  "name" : "surface_82_c_tbd",
                  "units" : "ft^2",
                  "value" : 45.961897479350576
               },
               {
                  "name" : "surface_822_c_tbd",
                  "units" : "ft^2",
                  "value" : 45.961897479350576
               },
               {
                  "name" : "surface_828_c_tbd",
                  "units" : "ft^2",
                  "value" : 45.961897479350576
               },
               {
                  "name" : "surface_836_c_tbd",
                  "units" : "ft^2",
                  "value" : 183.84758991740227
               },
               {
                  "name" : "surface_837_c_tbd",
                  "units" : "ft^2",
                  "value" : 241.29996176659009
               },
               {
                  "name" : "surface_844_c_tbd",
                  "units" : "ft^2",
                  "value" : 183.84758991740273
               },
               {
                  "name" : "surface_848_c_tbd",
                  "units" : "ft^2",
                  "value" : 183.84758991740273
               },
               {
                  "name" : "surface_856_c_tbd",
                  "units" : "ft^2",
                  "value" : 183.8475899174025
               },
               {
                  "name" : "surface_860_c_tbd",
                  "units" : "ft^2",
                  "value" : 183.84758991740244
               },
               {
                  "name" : "surface_868_c_tbd",
                  "units" : "ft^2",
                  "value" : 183.8475899174025
               },
               {
                  "name" : "surface_872_c_tbd",
                  "units" : "ft^2",
                  "value" : 183.84758991740244
               },
               {
                  "name" : "surface_878_c_tbd",
                  "units" : "ft^2",
                  "value" : 183.84758991740244
               },
               {
                  "name" : "surface_879_c_tbd",
                  "units" : "ft^2",
                  "value" : 241.29996176659009
               },
               {
                  "name" : "surface_88_c_tbd",
                  "units" : "ft^2",
                  "value" : 45.961897479350576
               },
               {
                  "name" : "surface_885_c_tbd",
                  "units" : "ft^2",
                  "value" : 241.29996176659009
               },
               {
                  "name" : "surface_886_c_tbd",
                  "units" : "ft^2",
                  "value" : 183.8475899174025
               },
               {
                  "name" : "surface_891_c_tbd",
                  "units" : "ft^2",
                  "value" : 241.29996176659009
               },
               {
                  "name" : "surface_892_c_tbd",
                  "units" : "ft^2",
                  "value" : 183.84758991740227
               },
               {
                  "name" : "surface_896_c_tbd",
                  "units" : "ft^2",
                  "value" : 45.961897479350576
               },
               {
                  "name" : "surface_902_c_tbd",
                  "units" : "ft^2",
                  "value" : 45.961897479350576
               },
               {
                  "name" : "surface_910_c_tbd",
                  "units" : "ft^2",
                  "value" : 183.84758991740227
               },
               {
                  "name" : "surface_911_c_tbd",
                  "units" : "ft^2",
                  "value" : 241.29996176659009
               },
               {
                  "name" : "surface_918_c_tbd",
                  "units" : "ft^2",
                  "value" : 183.84758991740273
               },
               {
                  "name" : "surface_922_c_tbd",
                  "units" : "ft^2",
                  "value" : 183.84758991740273
               },
               {
                  "name" : "surface_930_c_tbd",
                  "units" : "ft^2",
                  "value" : 183.8475899174025
               },
               {
                  "name" : "surface_934_c_tbd",
                  "units" : "ft^2",
                  "value" : 183.84758991740244
               },
               {
                  "name" : "surface_942_c_tbd",
                  "units" : "ft^2",
                  "value" : 183.8475899174025
               },
               {
                  "name" : "surface_946_c_tbd",
                  "units" : "ft^2",
                  "value" : 183.84758991740244
               },
               {
                  "name" : "surface_952_c_tbd",
                  "units" : "ft^2",
                  "value" : 183.84758991740244
               },
               {
                  "name" : "surface_953_c_tbd",
                  "units" : "ft^2",
                  "value" : 241.29996176659009
               },
               {
                  "name" : "surface_959_c_tbd",
                  "units" : "ft^2",
                  "value" : 241.29996176659009
               },
               {
                  "name" : "surface_96_c_tbd",
                  "units" : "ft^2",
                  "value" : 183.84758991740227
               },
               {
                  "name" : "surface_960_c_tbd",
                  "units" : "ft^2",
                  "value" : 183.8475899174025
               },
               {
                  "name" : "surface_965_c_tbd",
                  "units" : "ft^2",
                  "value" : 241.29996176659009
               },
               {
                  "name" : "surface_966_c_tbd",
                  "units" : "ft^2",
                  "value" : 183.84758991740227
               },
               {
                  "name" : "surface_968_c_tbd",
                  "units" : "ft^2",
                  "value" : 904.16847500361553
               },
               {
                  "name" : "surface_97_c_tbd",
                  "units" : "ft^2",
                  "value" : 241.29996176659009
               },
               {
                  "name" : "surface_970_c_tbd",
                  "units" : "ft^2",
                  "value" : 45.961897479350576
               },
               {
                  "name" : "surface_976_c_tbd",
                  "units" : "ft^2",
                  "value" : 45.961897479350576
               },
               {
                  "name" : "surface_982_c_tbd",
                  "units" : "ft^2",
                  "value" : 861.11283333677773
               },
               {
                  "name" : "surface_984_c_tbd",
                  "units" : "ft^2",
                  "value" : 183.84758991740227
               },
               {
                  "name" : "surface_985_c_tbd",
                  "units" : "ft^2",
                  "value" : 241.29996176659009
               },
               {
                  "name" : "surface_988_c_tbd",
                  "units" : "ft^2",
                  "value" : 904.16847500361553
               },
               {
                  "name" : "surface_992_c_tbd",
                  "units" : "ft^2",
                  "value" : 183.84758991740273
               },
               {
                  "name" : "surface_994_c_tbd",
                  "units" : "ft^2",
                  "value" : 904.16847500361791
               },
               {
                  "name" : "surface_996_c_tbd",
                  "units" : "ft^2",
                  "value" : 183.84758991740273
               },
               {
                  "name" : "customized_fenestration_u_3_08",
                  "units" : "ft^2",
                  "value" : 17373.597247194411
               },
               {
                  "name" : "gross_window_wall_ratio",
                  "units" : "%",
                  "value" : 30.0
               },
               {
                  "name" : "gross_window_wall_ratio_conditioned",
                  "units" : "%",
                  "value" : 30.0
               },
               {
                  "name" : "skylight_roof_ratio",
                  "units" : "%",
                  "value" : 0.0
               },
               {
                  "name" : "space_type_murb_lobby",
                  "units" : "ft^2",
                  "value" : 12055.579666714888
               },
               {
                  "name" : "space_type_murb_small_1",
                  "units" : "ft^2",
                  "value" : 126583.58650050632
               },
               {
                  "name" : "estar_mfhr_whole_building_water_use_equipment",
                  "units" : "gal/min",
                  "value" : 0.015850323141615143
               },
               {
                  "name" : "zone_max_hours_over_70_rh",
                  "units" : "hr",
                  "value" : 1367.0
               },
               {
                  "name" : "zone_max_hours_over_55_rh",
                  "units" : "hr",
                  "value" : 3776.0
               },
               {
                  "name" : "num_zones_x_hours_over_70",
                  "units" : "zones",
                  "value" : 141
               },
               {
                  "name" : "num_zones_x_hours_over_55",
                  "units" : "zones",
                  "value" : 148
               },
               {
                  "name" : "inflation_approach",
                  "value" : "Constant Dollar"
               },
               {
                  "name" : "analysis_length",
                  "units" : "yrs",
                  "value" : 25
               },
               {
                  "name" : "number_of_measures_with_warnings",
                  "value" : 1
               },
               {
                  "name" : "number_warnings",
                  "value" : 3
               },
               {
                  "name" : "annual_peak_electric_demand",
                  "units" : "kW",
                  "value" : 693.35565000000008
               },
               {
                  "name" : "first_year_capital_cost",
                  "units" : "$",
                  "value" : 0.0
               },
               {
                  "name" : "annual_utility_cost",
                  "units" : "$",
                  "value" : 0.0
               },
               {
                  "name" : "total_lifecycle_cost",
                  "units" : "$",
                  "value" : 0.0
               }
            ],
            "step_warnings" : []
         }
      },
      {
         "arguments" : 
         {
            "meter_name" : "Electricity:Facility"
         },
         "description" : "Exports an OutputMeter specified in the AddOutputMeter OpenStudio measure to a csv file.",
         "measure_dir_name" : "ExportMetertoCSV",
         "modeler_description" : "This measure searches for the OutputMeter name in the eplusout sql file and saves it to a csv file.",
         "name" : "ExportMetertoCSV",
         "result" : 
         {
            "completed_at" : "20251209T043439Z",
            "measure_class_name" : "ExportMetertoCSV",
            "measure_display_name" : "ExportMetertoCSV",
            "measure_name" : "export_meterto_csv",
            "measure_taxonomy" : "Reporting.QAQC",
            "measure_type" : "ReportingMeasure",
            "measure_uid" : "0d08ca00-7dea-436d-843a-a48a483cbf7c",
            "measure_version_id" : "40f15107-3761-451d-bd06-7085a610220e",
            "measure_version_modified" : "20251206T115216Z",
            "measure_xml_checksum" : "58A298CD",
            "started_at" : "20251209T043439Z",
            "stderr" : "",
            "stdout" : "[openstudio.energyplus.SqlFile] <Debug> Dictionary Built\n[openstudio.energyplus.SqlFile] <Debug> Making time series for envPeriod = 'RUN PERIOD 1', reportingFrequency = 'Hourly', timeSeriesName = 'Electricity:Facility', keyValue = ''\n[openstudio.energyplus.SqlFile] <Debug> RUN PERIOD 1\n[openstudio.energyplus.SqlFile] <Debug> Electricity:Facility\n[openstudio.energyplus.SqlFile] <Debug> SQL Query:\nSELECT dt.VariableValue, Time.Year, Time.Month, Time.Day, Time.Interval FROM ReportMeterData dt INNER JOIN Time ON Time.timeIndex = dt.TimeIndex WHERE  dt.ReportMeterDataDictionaryIndex=47 AND Time.EnvironmentPeriodIndex = 19Return Code:\n100\n[openstudio.energyplus.SqlFile] <Debug> Time series found\n",
            "step_errors" : [],
            "step_files" : 
            [
               "C:/Users/oriol/AppData/Local/Temp/osmodel-16c9-5d86-40c9-9843-1765253719-0/resources/run/007_ExportMetertoCSV/report_ElectricityFacility_Hourly.csv"
            ],
            "step_info" : [],
            "step_result" : "Success",
            "step_values" : 
            [
               {
                  "name" : "meter_name",
                  "value" : "Electricity:Facility"
               },
               {
                  "name" : "reporting_frequency",
                  "value" : "Hourly"
               }
            ],
            "step_warnings" : []
         }
      }
   ],
   "updated_at" : "20251209T043510Z",
   "weather_file" : "2020s_CAN_QC_Montreal-Trudeau.Intl.AP.716270_CWEC2016_modified.epw"
}